/*--------------------------------*- C++ -*----------------------------------*\
| =========                 |                                                 |
| \\      /  F ield         | OpenFOAM: The Open Source CFD Toolbox           |
|  \\    /   O peration     | Version:  2206                                  |
|   \\  /    A nd           | Website:  www.openfoam.com                      |
|    \\/     M anipulation  |                                                 |
\*---------------------------------------------------------------------------*/
FoamFile
{
    version     2.0;
    format      ascii;
    arch        "LSB;label=32;scalar=64";
    class       featureEdgeMesh;
    location    "constant/triSurface";
    object      aturbine.eMesh;
}
// * * * * * * * * * * * * * * * * * * * * * * * * * * * * * * * * * * * * * //


// points:

50461
(
(-0.001414 -0.050709 0.002019)
(-0.001889 -0.050709 0.001584)
(-0.001042 -0.050709 0.002234)
(0.002135 -0.050709 -0.001233)
(-0.002135 -0.050709 -0.001233)
(0.002135 0.046873 0.001232)
(0.002568 -0.017364 -0.002099)
(0.026419 0.019074 -0.008684)
(0.027566 0.018419 -0.007057)
(0.027625 0.018382 -0.00696)
(0.028586 0.01778 -0.005369)
(0.029485 0.017152 -0.003608)
(0.030263 0.016533 -0.001778)
(0.030916 0.015924 0.000122)
(0.030998 0.015835 0.000408)
(0.03125 0.015559 0.001296)
(0.031715 0.014938 0.003338)
(0.032277 0.013373 0.008727)
(-0.010214 -0.043965 0.000583)
(0.000254 -0.012911 -0.002612)
(-0.00272 0.044201 -0.000335)
(-0.001372 -0.005644 -0.00249)
(0.000191 -0.012002 -0.00283)
(0.000814 -0.014638 -0.002493)
(0.00152 -0.016777 -0.002155)
(0.002195 -0.019427 -0.001432)
(-0.003737 -0.047417 0.000544)
(-0.005333 -0.046586 0.000568)
(-0.02905 -0.03333 0.000531)
(-0.060532 -0.015189 0.000684)
(-0.060309 -0.015347 0.00057)
(-0.059988 -0.015551 0.000496)
(-0.061092 -0.014455 0.002237)
(-0.061101 -0.014624 0.001591)
(-0.061041 -0.014721 0.001358)
(-0.06087 -0.014908 0.001018)
(-0.057893 -0.01265 0.012963)
(-0.056678 -0.012149 0.015764)
(-0.04964 -0.009904 0.027167)
(-0.034452 -0.006346 0.040322)
(-0.033249 -0.006093 0.040996)
(-0.027092 -0.004839 0.043836)
(-0.028365 -0.005094 0.043327)
(0.002015 0.001016 0.045653)
(0.006064 0.001914 0.044391)
(0.008329 0.002434 0.043496)
(0.012214 0.003376 0.041593)
(0.019633 0.005435 0.036337)
(0.022754 0.006455 0.033249)
(0.024257 0.007009 0.031478)
(0.027861 0.008598 0.02608)
(0.030423 0.010195 0.020311)
(0.031071 0.010773 0.0182)
(0.032245 0.012786 0.010835)
(0.025232 0.019701 -0.010137)
(0.023951 0.020338 -0.011488)
(0.021736 0.021377 -0.013412)
(0.020286 0.022024 -0.014445)
(0.018787 0.022673 -0.015356)
(0.015721 0.023966 -0.016775)
(0.017243 0.023327 -0.016144)
(0.014084 0.024653 -0.017308)
(0.01017 0.026306 -0.018012)
(0.011772 0.025626 -0.017817)
(0.012418 0.025353 -0.017702)
(0.00374 0.029255 -0.017369)
(0.00352 0.029364 -0.017311)
(0.002256 0.030017 -0.016869)
(0.001079 0.030666 -0.01634)
(-3.1e-05 0.031327 -0.015721)
(-0.001164 0.032064 -0.014945)
(-0.002061 0.032706 -0.014204)
(-0.002763 0.033259 -0.013521)
(-0.002856 0.033333 -0.01343)
(-0.003549 0.03395 -0.012626)
(-0.004157 0.034577 -0.011777)
(-0.004793 0.035373 -0.010667)
(-0.005482 0.036589 -0.008931)
(-0.005691 0.037175 -0.008088)
(-0.005818 0.037769 -0.007245)
(-0.005837 0.03793 -0.007019)
(-0.005846 0.038009 -0.006908)
(-0.005859 0.0386 -0.006093)
(-0.005799 0.039183 -0.005312)
(-0.005671 0.039758 -0.00457)
(-0.005491 0.040291 -0.003909)
(-0.00548 0.040322 -0.003871)
(-0.00525 0.040834 -0.003272)
(-0.005219 0.040903 -0.003192)
(-0.004592 0.041952 -0.002089)
(-0.004541 0.042029 -0.002011)
(-0.004179 0.042524 -0.001559)
(-0.004133 0.042586 -0.001502)
(-0.003685 0.043138 -0.001048)
(-0.003231 0.043655 -0.000674)
(0.006625 -0.003348 -0.007003)
(0.006935 -0.003556 -0.006878)
(0.009204 -0.008994 -0.003557)
(0.004338 -0.005115 -0.006435)
(0.004618 -0.005319 -0.00638)
(0.002983 -0.027955 0.004793)
(0.002729 -0.022124 -0.000441)
(0.000344 -0.005111 -0.005019)
(-0.003686 -0.047079 -0.00021)
(0.000469 -0.031469 0.002862)
(0.00208 -0.026469 0.002071)
(0.002764 -0.023334 0.001085)
(-0.000795 -0.033607 0.004269)
(0.000789 -0.030536 0.003999)
(0.00131 -0.029413 0.003738)
(-0.003847 -0.039959 0.002916)
(0.00122 -0.010957 -0.002823)
(0.002982 -0.020849 0.000134)
(-0.004837 0.039961 -0.004626)
(-0.002278 0.033562 -0.012871)
(-0.001771 0.03314 -0.013373)
(0.02888 0.01768 -0.003345)
(-0.060677 -0.013975 0.001288)
(-0.059805 -0.01472 0.000356)
(-0.059936 -0.014633 0.000401)
(0.002134 -0.012911 0.001525)
(-0.00569 0.019074 0.027221)
(-0.007672 0.018419 0.027401)
(-0.009644 0.01778 0.027439)
(-0.011619 0.017152 0.027338)
(-0.013593 0.016533 0.027097)
(-0.015565 0.015924 0.026712)
(-0.016748 0.015559 0.026415)
(-0.018749 0.014938 0.025796)
(-0.018987 0.014863 0.025705)
(-0.023698 0.013373 0.023589)
(0.004601 -0.043965 -0.009137)
(-0.00235 -0.02731 0.001323)
(0.002355 -0.012002 0.001579)
(0.002367 -0.011824 0.001445)
(0.001649 0.044201 -0.002189)
(0.00268 0.014073 -0.001738)
(0.00259 -0.005214 -0.000234)
(-0.000546 -0.021224 0.002577)
(0.002173 -0.046586 -0.004903)
(0.014064 -0.03333 -0.025424)
(0.02966 -0.015347 -0.052515)
(0.029564 -0.015551 -0.0522)
(0.028608 -0.014455 -0.054026)
(0.029048 -0.014572 -0.053805)
(0.029344 -0.014721 -0.053542)
(0.029437 -0.01479 -0.053423)
(0.029553 -0.014908 -0.053225)
(0.021014 -0.013195 -0.056064)
(0.017719 -0.01265 -0.056619)
(0.011025 -0.011545 -0.057169)
(0.001292 -0.009904 -0.056574)
(0.001067 -0.009865 -0.056538)
(-0.005354 -0.008727 -0.055155)
(-0.017695 -0.006346 -0.049998)
(-0.01888 -0.006093 -0.049293)
(-0.023341 -0.005094 -0.046229)
(-0.023262 -0.005112 -0.046287)
(-0.040545 0.001016 -0.021082)
(-0.041834 0.002434 -0.014536)
(-0.042098 0.003916 -0.007796)
(-0.041287 0.005435 -0.001166)
(-0.040172 0.006455 0.003081)
(-0.03939 0.007009 0.005268)
(-0.036518 0.008598 0.011087)
(-0.032803 0.010195 0.016191)
(-0.025507 0.012786 0.022506)
(-0.026785 0.012364 0.02164)
(-0.002027 0.020338 0.026486)
(-0.000951 0.020732 0.026159)
(0.000746 0.021377 0.025529)
(0.002365 0.022024 0.02479)
(0.003904 0.022673 0.023947)
(0.006666 0.023966 0.022002)
(0.005733 0.02351 0.022717)
(0.007946 0.024653 0.02085)
(0.010513 0.026306 0.017813)
(0.010185 0.026075 0.01825)
(0.009543 0.025626 0.019103)
(0.00912 0.025353 0.019605)
(0.012861 0.028696 0.013053)
(0.013231 0.029364 0.011703)
(0.01348 0.030017 0.010388)
(0.013611 0.030666 0.009104)
(0.013629 0.031327 0.007833)
(0.013524 0.032064 0.006464)
(0.013331 0.032706 0.005317)
(0.013058 0.033333 0.004241)
(0.012708 0.03395 0.003238)
(0.012277 0.034577 0.002288)
(0.011072 0.035988 0.000408)
(0.010474 0.036589 -0.000283)
(0.009849 0.037175 -0.000885)
(0.00956 0.037432 -0.001116)
(0.009182 0.037769 -0.001417)
(0.008904 0.038009 -0.00161)
(0.008206 0.0386 -0.002028)
(0.007499 0.039183 -0.002366)
(0.006792 0.039758 -0.002627)
(0.006092 0.040322 -0.002811)
(0.005458 0.040834 -0.002912)
(0.005373 0.040903 -0.002925)
(0.004104 0.041952 -0.002933)
(0.004012 0.042029 -0.002928)
(0.002749 0.043138 -0.002668)
(0.002488 -0.003556 0.009444)
(0.003403 -0.005115 0.006974)
(-0.001522 -0.008994 0.009749)
(-0.005643 -0.027955 0.000186)
(0.003583 -0.00491 0.006752)
(0.000533 -0.017364 0.003272)
(0.001105 -0.016777 0.002393)
(0.002817 -0.005722 0.007595)
(0.002024 -0.047079 -0.003088)
(-0.001027 -0.039137 -0.004647)
(-0.002556 -0.035829 -0.003741)
(-0.002957 -0.034721 -0.003306)
(0.011221 -0.036038 -0.019846)
(0.001836 -0.01097 0.002473)
(0.002834 0.015489 -0.000973)
(0.002645 0.043551 -0.001753)
(0.003464 0.042697 -0.002006)
(0.004042 0.042132 -0.002102)
(0.01273 0.032319 0.006549)
(0.012716 0.030372 0.010144)
(0.012455 0.029625 0.011602)
(-0.022754 -0.004468 -0.046099)
(0.029458 -0.014152 -0.052889)
(0.029378 -0.01408 -0.053012)
(0.029594 -0.01472 -0.051972)
(0.02962 -0.014633 -0.052107)
(0.02952 -0.014856 -0.051763)
(-0.002389 -0.012911 0.001085)
(-0.02073 0.019074 -0.018539)
(-0.019895 0.018419 -0.020346)
(-0.018942 0.01778 -0.022073)
(-0.017867 0.017152 -0.023732)
(-0.016671 0.016533 -0.025321)
(-0.015352 0.015924 -0.026837)
(-0.014503 0.015559 -0.027713)
(-0.012967 0.014938 -0.029136)
(-0.008581 0.013373 -0.032318)
(0.005612 -0.043965 0.008553)
(2.8e-05 -0.02731 -0.002698)
(-0.002294 -0.012691 0.001162)
(0.00107 0.044201 0.002522)
(0.000164 0.014073 0.003189)
(-4e-05 0.004485 0.002602)
(0.00234 -0.047417 0.002963)
(0.003159 -0.046586 0.004333)
(0.014985 -0.03333 0.024891)
(0.030648 -0.015347 0.051943)
(0.030424 -0.015551 0.051702)
(0.032483 -0.014455 0.051788)
(0.032072 -0.014572 0.052059)
(0.031696 -0.014721 0.052183)
(0.031546 -0.01479 0.052204)
(0.031317 -0.014908 0.052205)
(0.038045 -0.013195 0.046229)
(0.048348 -0.009904 0.029405)
(0.050465 -0.00871 0.022845)
(0.052146 -0.006346 0.009674)
(0.052128 -0.006093 0.008295)
(0.051705 -0.005094 0.0029)
(0.038529 0.001016 -0.024573)
(0.035412 0.001914 -0.027448)
(0.033504 0.002434 -0.028962)
(0.029914 0.003376 -0.031375)
(0.021653 0.005435 -0.035173)
(0.015132 0.007009 -0.036747)
(0.008656 0.008598 -0.03717)
(0.002379 0.010195 -0.036504)
(0.000226 0.010773 -0.036009)
(-0.006739 0.012786 -0.033343)
(-0.005349 0.012364 -0.034017)
(-0.021395 0.019701 -0.016785)
(-0.021925 0.020338 -0.015)
(-0.022483 0.021377 -0.012119)
(-0.022652 0.022024 -0.010347)
(-0.022692 0.022673 -0.008594)
(-0.022388 0.023966 -0.005228)
(-0.022602 0.023327 -0.006862)
(-0.020684 0.026306 0.000198)
(-0.021316 0.025626 -0.001287)
(-0.02154 0.025353 -0.001905)
(-0.016751 0.029364 0.005606)
(-0.015737 0.030017 0.006479)
(-0.014691 0.030666 0.007234)
(-0.0136 0.031327 0.007886)
(-0.012361 0.032064 0.008479)
(-0.011271 0.032706 0.008886)
(-0.010328 0.033259 0.009152)
(-0.010203 0.033333 0.009187)
(-0.009159 0.03395 0.009385)
(-0.008121 0.034577 0.009488)
(-0.006841 0.035373 0.009483)
(-0.00589 0.035988 0.009384)
(-0.004993 0.036589 0.009211)
(-0.004159 0.037175 0.008971)
(-0.003365 0.037769 0.00866)
(-0.003059 0.038009 0.008515)
(-0.002347 0.0386 0.00812)
(-0.001701 0.039183 0.007677)
(-0.001122 0.039758 0.007194)
(-0.000612 0.040322 0.006681)
(-0.000154 0.040903 0.006115)
(0.000168 0.041386 0.005619)
(0.000223 0.041468 0.005534)
(0.000487 0.041952 0.00502)
(0.000529 0.042029 0.004937)
(0.000766 0.042586 0.004329)
(0.000935 0.043138 0.003714)
(-0.008049 -0.005922 -0.001638)
(-0.007742 -0.005115 -0.000541)
(-0.007834 -0.005319 -0.00081)
(-0.00432 -0.004899 0.002341)
(-0.007682 -0.008994 -0.006193)
(0.00266 -0.027955 -0.004981)
(-0.00764 -0.00491 -0.000274)
(-0.003101 -0.017364 -0.001176)
(-0.002626 -0.016777 -0.00024)
(-0.004518 -0.005111 0.00221)
(0.001698 -0.047039 0.003352)
(0.004095 -0.033607 -0.001447)
(0.002185 -0.028568 -0.003188)
(0.047982 -0.001955 -0.009333)
(0.000195 0.043551 0.003166)
(-0.001588 0.039961 0.006501)
(-0.005899 0.036236 0.008559)
(-0.020973 0.025536 -0.002592)
(0.03122 -0.01408 0.051947)
(0.030211 -0.01472 0.051614)
(0.030315 -0.014633 0.051704)
(0.004225 0.00227 0.044804)
(-0.047013 -0.008472 0.030014)
(-0.057751 -0.011878 0.012962)
(0.019377 0.006141 0.036293)
(0.016057 0.00517 0.038938)
(0.005862 0.002631 0.044282)
(-0.0451 -0.007994 0.032042)
(-0.05131 -0.009646 0.024775)
(-0.058798 -0.012355 0.010286)
(0.021095 0.006671 0.034731)
(-0.049657 -0.00918 0.027021)
(-0.054925 -0.010787 0.019071)
(-0.059164 -0.012535 0.009312)
(0.032008 0.013447 0.011006)
(0.030184 0.010869 0.020415)
(0.024034 0.007695 0.031511)
(-0.000605 0.001189 0.046157)
(-0.018172 -0.00235 0.046268)
(-0.053548 -0.010336 0.021513)
(-0.058857 -0.012379 0.010311)
(0.030097 0.017163 -0.001506)
(0.031069 0.016196 0.00154)
(0.031849 0.014968 0.005625)
(0.032077 0.014023 0.008914)
(0.031652 0.012433 0.014681)
(0.030863 0.011436 0.018324)
(0.025447 0.008243 0.029686)
(0.019447 0.006115 0.036363)
(0.004272 0.002235 0.044926)
(-0.020733 -0.002869 0.045767)
(-0.02473 -0.003657 0.044641)
(-0.04894 -0.009001 0.028002)
(0.027466 0.019028 -0.006754)
(0.02936 0.01777 -0.003335)
(0.031559 0.01557 0.003558)
(0.032006 0.014608 0.006827)
(0.03196 0.01301 0.012535)
(0.03127 0.011837 0.016825)
(0.021168 0.006638 0.034794)
(0.014138 0.004584 0.040384)
(-0.022232 -0.00318 0.045419)
(-0.02848 -0.004417 0.043276)
(-0.039091 -0.006646 0.03731)
(-0.047121 -0.008535 0.030128)
(-0.049723 -0.009226 0.027084)
(-0.053595 -0.010369 0.021548)
(0.031913 0.014948 0.005611)
(0.032141 0.014002 0.008907)
(0.029496 0.010267 0.022503)
(0.01616 0.005111 0.039059)
(0.012075 0.004028 0.04164)
(0.005928 0.002568 0.044425)
(-0.027215 -0.004182 0.043814)
(-0.033369 -0.005436 0.040963)
(-0.045196 -0.00807 0.032158)
(-0.048979 -0.009038 0.028043)
(-0.056318 -0.011319 0.016626)
(-0.058934 -0.012433 0.010347)
(-0.060109 -0.013067 0.006604)
(0.015829 0.024513 -0.016444)
(0.023134 0.021306 -0.011956)
(0.026382 0.019661 -0.008411)
(0.028526 0.018374 -0.005117)
(0.030307 0.010819 0.020443)
(0.026586 0.008664 0.028146)
(0.012092 0.004009 0.041662)
(0.001891 0.00165 0.045704)
(-0.024746 -0.003714 0.044724)
(-0.047155 -0.008577 0.030169)
(-0.055043 -0.010876 0.019153)
(-0.057937 -0.011985 0.013057)
(-0.059294 -0.012625 0.009371)
(0.021775 0.021935 -0.013131)
(0.032201 0.013971 0.008897)
(0.032052 0.012965 0.012532)
(0.029552 0.010232 0.022516)
(0.014194 0.004527 0.040447)
(0.004322 0.002159 0.045028)
(-0.027225 -0.004227 0.043864)
(-0.036894 -0.006225 0.038917)
(-0.056359 -0.011366 0.016654)
(-0.058978 -0.01248 0.010371)
(-0.059315 -0.012649 0.009382)
(0.027564 0.018981 -0.006836)
(0.029466 0.017719 -0.003402)
(0.031802 0.012356 0.014684)
(0.026636 0.008623 0.028165)
(0.025576 0.008155 0.029751)
(0.021258 0.00656 0.034859)
(0.010439 0.003546 0.042585)
(0.005967 0.002502 0.044492)
(-0.000549 0.001075 0.046315)
(-0.024752 -0.003763 0.044771)
(-0.045237 -0.008141 0.032218)
(-0.056824 -0.011563 0.015725)
(0.030908 0.016477 0.000298)
(0.03215 0.014527 0.006791)
(0.032105 0.012924 0.012526)
(0.031414 0.011747 0.016833)
(0.027818 0.009161 0.026217)
(0.02666 0.008599 0.028173)
(0.019575 0.005998 0.036466)
(0.016235 0.005023 0.039129)
(0.008249 0.002995 0.043617)
(-0.002245 0.000689 0.046643)
(-0.018177 -0.002496 0.046452)
(-0.022242 -0.003296 0.045541)
(-0.028506 -0.004534 0.043395)
(-0.044377 -0.007959 0.033072)
(-0.05306 -0.010294 0.022621)
(-0.056391 -0.01142 0.01668)
(-0.060768 -0.014168 0.003902)
(0.023149 0.020759 -0.012263)
(0.027587 0.018446 -0.00706)
(0.029506 0.017178 -0.003609)
(0.030444 0.010219 0.020325)
(0.029661 0.009649 0.0224)
(0.026723 0.008059 0.028055)
(0.024273 0.007031 0.031497)
(0.014307 0.003937 0.040379)
(0.008335 0.002455 0.043522)
(-0.000441 0.000508 0.046248)
(-0.004642 -0.000368 0.046893)
(-0.036775 -0.006818 0.038931)
(-0.05135 -0.010362 0.024954)
(-0.053548 -0.011029 0.021649)
(-0.056257 -0.011959 0.016713)
(-0.058881 -0.013073 0.010439)
(0.00883 0.027454 -0.017884)
(0.023198 0.021247 -0.01206)
(0.030282 0.017063 -0.00161)
(0.032243 0.013322 0.010983)
(0.031852 0.012311 0.014679)
(0.029626 0.010163 0.022528)
(0.02784 0.009135 0.026222)
(0.010467 0.003493 0.042617)
(-0.004737 0.000145 0.046992)
(-0.034605 -0.005816 0.040393)
(-0.051498 -0.009852 0.024953)
(-0.055105 -0.010983 0.019207)
(0.015858 0.024447 -0.016597)
(0.018897 0.023161 -0.015178)
(0.025299 0.0202 -0.00997)
(0.029528 0.017657 -0.003453)
(0.016267 0.004968 0.039152)
(0.004368 0.002053 0.045097)
(-0.022239 -0.003354 0.045576)
(-0.039153 -0.006824 0.03745)
(-0.044391 -0.008018 0.033102)
(-0.04982 -0.009405 0.0272)
(-0.053705 -0.010549 0.021651)
(0.017369 0.023791 -0.015992)
(0.027635 0.018898 -0.006915)
(0.02865 0.01826 -0.005228)
(0.030319 0.017015 -0.00164)
(0.006014 0.00239 0.044551)
(-0.027232 -0.004369 0.043955)
(-0.045266 -0.008259 0.032277)
(0.011937 0.026058 -0.017699)
(0.01586 0.024405 -0.01665)
(0.026504 0.019527 -0.00856)
(0.027648 0.018872 -0.006933)
(0.02956 0.017606 -0.003485)
(0.030985 0.016379 0.000244)
(0.031119 0.011227 0.018337)
(0.029683 0.010079 0.022528)
(-0.002212 0.000571 0.046698)
(-0.008854 -0.000778 0.047275)
(-0.015574 -0.002107 0.046906)
(-0.022234 -0.003417 0.045601)
(-0.053717 -0.010613 0.021671)
(0.017372 0.023744 -0.016041)
(0.023236 0.021155 -0.012151)
(0.025331 0.020126 -0.010031)
(0.028675 0.018206 -0.005261)
(0.031331 0.015986 0.001407)
(0.030483 0.010618 0.020448)
(0.025686 0.007989 0.029779)
(0.016306 0.004876 0.039171)
(-0.018159 -0.002649 0.046521)
(-0.045269 -0.008324 0.032296)
(-0.053094 -0.01045 0.022674)
(-0.060237 -0.013325 0.006683)
(0.015857 0.024356 -0.016697)
(0.01891 0.023066 -0.015274)
(0.02406 0.020735 -0.011402)
(0.027667 0.018817 -0.006967)
(0.02971 0.010017 0.022522)
(0.026761 0.008425 0.028186)
(0.024303 0.007396 0.031634)
(0.012214 0.003758 0.041768)
(0.004406 0.001927 0.045128)
(-0.034603 -0.005975 0.040449)
(-0.059059 -0.012724 0.010441)
(-0.059397 -0.012894 0.009451)
(0.023244 0.021099 -0.012189)
(0.028691 0.018148 -0.005292)
(0.031351 0.015926 0.001383)
(0.032268 0.014336 0.006726)
(0.025707 0.007925 0.029774)
(-0.033393 -0.005755 0.04113)
(-0.05643 -0.011643 0.01674)
(0.024065 0.020676 -0.011436)
(0.029594 0.017489 -0.003542)
(0.031024 0.01626 0.000195)
(0.032346 0.013118 0.010932)
(0.030513 0.010523 0.020432)
(0.014321 0.004232 0.040525)
(-0.030967 -0.00529 0.042367)
(-0.040228 -0.007259 0.036687)
(-0.049822 -0.009602 0.027245)
(-0.053087 -0.010551 0.022689)
(-0.060941 -0.013887 0.003895)
(0.012545 0.025657 -0.017686)
(0.028697 0.018086 -0.005318)
(0.030374 0.016838 -0.00172)
(0.016337 0.004745 0.039164)
(0.010545 0.00324 0.042649)
(-0.024722 -0.004077 0.044869)
(-0.047201 -0.008944 0.030298)
(-0.051503 -0.010112 0.025011)
(0.018898 0.02295 -0.015341)
(0.027677 0.018694 -0.007022)
(0.027946 0.008857 0.026201)
(0.017874 0.005148 0.038002)
(0.01224 0.003626 0.041753)
(-0.004673 -0.000144 0.047034)
(-0.020697 -0.00332 0.045991)
(-0.028473 -0.004854 0.043469)
(-0.04437 -0.00828 0.033147)
(-0.056858 -0.011914 0.015805)
(0.004985 0.028937 -0.017694)
(0.007202 0.0279 -0.018026)
(0.014189 0.024898 -0.017312)
(0.032278 0.014206 0.006688)
(0.028977 0.009386 0.024186)
(0.014333 0.004134 0.040503)
(-0.002165 0.000341 0.046691)
(-0.027187 -0.004631 0.043974)
(-0.056397 -0.011774 0.016748)
(-0.060914 -0.013984 0.003905)
(0.017337 0.023541 -0.016152)
(0.021833 0.02159 -0.013412)
(0.029588 0.01736 -0.003584)
(0.03238 0.013575 0.008782)
(-0.000452 0.000669 0.046368)
(-0.007187 -0.000718 0.047209)
(-0.013975 -0.002063 0.047062)
(-0.059011 -0.012919 0.010458)
(-0.060192 -0.013554 0.006708)
(0.015805 0.024149 -0.016793)
(0.032266 0.014142 0.00667)
(0.031537 0.011354 0.016753)
(0.002017 0.001168 0.045785)
(-0.011376 -0.001581 0.047217)
(-0.018102 -0.002908 0.046491)
(-0.028443 -0.004947 0.043442)
(-0.059333 -0.013119 0.009468)
(0.025313 0.019849 -0.01014)
(0.03213 0.014464 0.005443)
(0.032364 0.013512 0.008765)
(0.029717 0.009759 0.022454)
(0.017871 0.005023 0.037952)
(-0.00879 -0.001099 0.04723)
(-0.015506 -0.002427 0.046867)
(-0.022162 -0.003737 0.045568)
(-0.027155 -0.004721 0.043939)
(0.032244 0.01408 0.006654)
(0.032318 0.012894 0.010869)
(0.030491 0.0103 0.020363)
(0.028951 0.009262 0.024139)
(0.010552 0.003055 0.042571)
(-0.011363 -0.001637 0.047182)
(-0.020652 -0.00347 0.045928)
(-0.056777 -0.012061 0.015794)
(0.014128 0.024742 -0.01733)
(0.032336 0.013452 0.008748)
(0.029694 0.009701 0.022428)
(0.02791 0.008673 0.026129)
(0.008344 0.002503 0.043569)
(-0.000442 0.000555 0.046297)
(-0.00878 -0.001153 0.04719)
(-0.027131 -0.004774 0.043904)
(-0.033297 -0.006029 0.041058)
(-0.036809 -0.006773 0.038969)
(-0.040128 -0.007499 0.036626)
(-0.045151 -0.008664 0.032261)
(-0.048944 -0.009633 0.028147)
(-0.057908 -0.012559 0.013147)
(-0.058932 -0.013029 0.01045)
(0.028625 0.017835 -0.005371)
(0.032212 0.014022 0.00664)
(0.028924 0.009207 0.024111)
(0.006072 0.001958 0.044442)
(-0.002146 0.000171 0.046584)
(-0.007164 -0.000856 0.047115)
(-0.027118 -0.004798 0.043883)
(-0.030866 -0.005554 0.04227)
(-0.034485 -0.006305 0.040365)
(-0.039027 -0.007283 0.037416)
(-0.056731 -0.012109 0.015781)
(-0.057884 -0.012582 0.013141)
(-0.059246 -0.013221 0.009457)
(-0.061236 -0.014313 0.002242)
(-0.060776 -0.013751 0.001937)
(-0.060875 -0.013727 0.001945)
(-0.061008 -0.013733 0.001964)
(-0.061231 -0.013868 0.00202)
(-0.060733 -0.013916 0.001396)
(-0.060426 -0.01427 0.000722)
(-0.060053 -0.014563 0.000418)
(-0.061086 -0.013785 0.001826)
(-0.061027 -0.013917 0.001343)
(-0.061027 -0.013985 0.001201)
(-0.060902 -0.014095 0.000936)
(-0.060853 -0.014197 0.000774)
(-0.06026 -0.014687 0.000194)
(-0.060118 -0.014749 0.000152)
(-0.059963 -0.014852 9.8e-05)
(-0.059855 -0.014957 5.3e-05)
(-0.059706 -0.015012 5.1e-05)
(-0.061121 -0.013837 0.001679)
(-0.061088 -0.013945 0.001342)
(-0.061015 -0.014061 0.001062)
(-0.060946 -0.014145 0.000892)
(-0.060808 -0.014287 0.000652)
(-0.060397 -0.014627 0.00025)
(-0.060002 -0.0149 7e-05)
(-0.059873 -0.014982 4e-05)
(-0.061139 -0.013912 0.001491)
(-0.061086 -0.014019 0.0012)
(-0.060989 -0.014146 0.000924)
(-0.06075 -0.014384 0.000537)
(-0.060529 -0.014567 0.00032)
(-0.060305 -0.014734 0.000173)
(-0.060148 -0.014842 0.000102)
(-0.060022 -0.014926 6e-05)
(-0.061145 -0.013982 0.001346)
(-0.06107 -0.0141 0.00106)
(-0.060681 -0.014488 0.000429)
(-0.060443 -0.014675 0.000236)
(-0.060202 -0.014846 0.000108)
(-0.05991 -0.015036 2.2e-05)
(-0.060575 -0.014617 0.000311)
(-0.060061 -0.01498 4.8e-05)
(-0.059792 -0.015147 -2e-06)
(-0.061065 -0.014214 0.000926)
(-0.060699 -0.014561 0.000401)
(-0.059947 -0.015093 1.5e-05)
(-0.060746 -0.014566 0.000428)
(-0.059965 -0.015122 1.5e-05)
(-0.059479 -0.01493 0.000277)
(-0.059485 -0.014941 0.000242)
(-0.060821 -0.013769 0.001806)
(-0.060824 -0.013803 0.001673)
(-0.060768 -0.013947 0.001253)
(-0.060671 -0.014074 0.000984)
(-0.060476 -0.014266 0.000677)
(-0.060189 -0.014497 0.000421)
(-0.059981 -0.014645 0.000311)
(-0.060854 -0.013762 0.001806)
(-0.060397 -0.014358 0.000543)
(-0.060307 -0.01443 0.000464)
(-0.060108 -0.014578 0.000334)
(-0.059857 -0.014748 0.000234)
(-0.059502 -0.01497 0.000179)
(-0.060891 -0.013792 0.001669)
(-0.060833 -0.013941 0.001234)
(-0.06053 -0.014272 0.000636)
(-0.060446 -0.014344 0.000544)
(-0.060233 -0.014511 0.00037)
(-0.059634 -0.014909 0.000163)
(-0.060921 -0.013755 0.001809)
(-0.060895 -0.013891 0.001357)
(-0.060866 -0.013942 0.001226)
(-0.060635 -0.014207 0.000719)
(-0.05977 -0.014851 0.000153)
(-0.060959 -0.013792 0.001669)
(-0.060859 -0.014003 0.001088)
(-0.060734 -0.014147 0.000813)
(-0.06038 -0.014457 0.000399)
(-0.060056 -0.014693 0.000209)
(-0.059907 -0.014792 0.000157)
(-0.059536 -0.01503 9.7e-05)
(-0.060989 -0.013759 0.001814)
(-0.060962 -0.013899 0.001348)
(-0.060932 -0.013952 0.001213)
(-0.060501 -0.014394 0.000465)
(-0.059675 -0.014966 8.9e-05)
(-0.05955 -0.015054 7.4e-05)
(-0.061015 -0.013858 0.001486)
(-0.060857 -0.0141 0.00091)
(-0.060552 -0.014388 0.000474)
(-0.059819 -0.01491 8.7e-05)
(-0.059684 -0.015285 -1e-05)
(-0.060739 -0.014615 0.000407)
(-0.060116 -0.015066 5e-05)
(-0.061255 -0.014107 0.001372)
(-0.061179 -0.014227 0.001082)
(-0.061041 -0.014386 0.000778)
(-0.060879 -0.014539 0.000544)
(-0.060262 -0.015009 9.9e-05)
(-0.061307 -0.014014 0.002059)
(-0.061273 -0.014307 0.002112)
(-0.061216 -0.01439 0.00212)
(-0.061292 -0.014084 0.001531)
(-0.061238 -0.014194 0.001233)
(-0.060798 -0.014651 0.000447)
(-0.060438 -0.014927 0.00018)
(-0.061312 -0.014016 0.001894)
(-0.061308 -0.014102 0.001581)
(-0.061283 -0.014167 0.001389)
(-0.061207 -0.014287 0.001099)
(-0.060994 -0.014519 0.000676)
(-0.060908 -0.014598 0.000563)
(-0.060786 -0.014702 0.000432)
(-0.060571 -0.014869 0.000261)
(-0.061261 -0.014255 0.001252)
(-0.061163 -0.014385 0.000971)
(-0.061081 -0.014474 0.000808)
(-0.060466 -0.014984 0.000205)
(-0.061322 -0.014178 0.001559)
(-0.060834 -0.014739 0.000485)
(-0.06133 -0.014197 0.001609)
(-0.061305 -0.014261 0.00142)
(-0.061231 -0.014379 0.001134)
(-0.060936 -0.014686 0.000605)
(-0.060815 -0.014789 0.000476)
(-0.061276 -0.014349 0.001288)
(-0.060847 -0.014796 0.00052)
(-0.060821 -0.014817 0.000494)
(-0.060611 -0.014981 0.000327)
(-0.060213 -0.015257 0.000145)
(-0.059948 -0.015422 9.6e-05)
(-0.060724 -0.014925 0.000426)
(-0.060502 -0.01509 0.000281)
(-0.059822 -0.015525 0.000113)
(-0.061303 -0.014357 0.001456)
(-0.061272 -0.014412 0.001314)
(-0.06062 -0.015032 0.000371)
(-0.060101 -0.015384 0.000163)
(-0.061297 -0.014388 0.001468)
(-0.060941 -0.014797 0.000683)
(-0.060509 -0.015137 0.000329)
(-0.060235 -0.015323 0.000219)
(-0.059978 -0.015483 0.000172)
(-0.061288 -0.014418 0.001481)
(-0.061217 -0.01453 0.001208)
(-0.060847 -0.0149 0.000606)
(-0.060725 -0.014998 0.000497)
(-0.060114 -0.015421 0.000218)
(-0.061296 -0.014399 0.001634)
(-0.061246 -0.0145 0.001358)
(-0.061141 -0.014638 0.001063)
(-0.060817 -0.014943 0.000607)
(-0.060618 -0.015098 0.000449)
(-0.060242 -0.015359 0.000277)
(-0.061285 -0.014416 0.001682)
(-0.061068 -0.014729 0.000966)
(-0.060921 -0.014869 0.000752)
(-0.060715 -0.015039 0.00055)
(-0.060121 -0.015451 0.000279)
(-0.06127 -0.014366 0.001974)
(-0.0608 -0.014983 0.000659)
(-0.060358 -0.01531 0.000378)
(-0.059999 -0.015538 0.000294)
(-0.061255 -0.014429 0.001841)
(-0.061245 -0.014481 0.001666)
(-0.061198 -0.014578 0.001403)
(-0.060972 -0.014839 0.000902)
(-0.060812 -0.014981 0.000709)
(-0.060495 -0.015224 0.000473)
(-0.061227 -0.014494 0.001711)
(-0.061205 -0.01455 0.001545)
(-0.060881 -0.014925 0.000827)
(-0.060589 -0.015161 0.000565)
(-0.061205 -0.014443 0.001988)
(-0.061209 -0.014477 0.001854)
(-0.0612 -0.014528 0.001686)
(-0.060782 -0.01501 0.000763)
(-0.06113 -0.01464 0.001446)
(-0.060916 -0.014887 0.000972)
(-0.060656 -0.015109 0.000692)
(-0.059998 -0.015556 0.000428)
(-0.061156 -0.014518 0.001866)
(-0.060956 -0.014837 0.001094)
(-0.060824 -0.014963 0.000903)
(-0.060349 -0.015328 0.000549)
(-0.060106 -0.015486 0.000478)
(-0.023184 -0.036714 0.000447)
(0.033763 -0.014168 0.050674)
(-0.022047 0.024682 -0.003552)
(-0.022194 0.020759 -0.013917)
(-0.018954 0.017807 -0.02209)
(-0.015362 0.01595 -0.026856)
(0.00238 0.010219 -0.036529)
(0.027816 0.003937 -0.032581)
(0.033524 0.002455 -0.028981)
(0.036732 0.001569 -0.026332)
(0.040273 0.000508 -0.022743)
(0.042932 -0.000368 -0.019428)
(0.052156 -0.006074 0.008298)
(0.051734 -0.007544 0.016423)
(0.047285 -0.010362 0.031992)
(0.042603 -0.011959 0.040362)
(0.038482 -0.013073 0.045772)
(-0.022481 0.023829 -0.007067)
(-0.020591 0.019597 -0.018669)
(-0.016535 0.017063 -0.025421)
(-0.015195 0.016477 -0.026918)
(-0.011202 0.014857 -0.03054)
(-0.00661 0.013322 -0.033416)
(-0.005205 0.012924 -0.034068)
(-0.003213 0.012311 -0.034926)
(0.006541 0.009696 -0.037114)
(0.008795 0.009161 -0.037201)
(0.012969 0.008106 -0.037072)
(0.017558 0.007018 -0.036351)
(0.01956 0.006509 -0.035886)
(0.021794 0.005998 -0.035187)
(0.027943 0.004478 -0.032563)
(0.036865 0.002082 -0.026316)
(0.038675 0.001577 -0.024551)
(0.040407 0.001021 -0.022718)
(0.041517 0.000689 -0.021378)
(0.043065 0.000145 -0.019395)
(0.044481 -0.000338 -0.017293)
(0.050155 -0.00303 -0.005007)
(0.050561 -0.003296 -0.00351)
(0.052268 -0.005563 0.00839)
(0.052192 -0.006278 0.012484)
(0.05141 -0.00751 0.019214)
(0.049788 -0.008684 0.025758)
(0.048866 -0.009138 0.028409)
(0.04612 -0.010294 0.034639)
(-0.019925 0.027439 0.001314)
(-0.022302 0.024447 -0.005436)
(-0.022593 0.023161 -0.008778)
(0.038692 0.00152 -0.024584)
(0.049345 -0.002554 -0.007508)
(0.05059 -0.003354 -0.003529)
(0.050863 -0.008018 0.021892)
(0.048899 -0.009197 0.028411)
(0.042672 -0.011479 0.040504)
(0.040364 -0.012123 0.043685)
(0.035877 -0.013228 0.048817)
(-0.01658 0.017015 -0.025438)
(0.036877 0.002023 -0.026347)
(0.050178 -0.00309 -0.005027)
(0.042092 -0.011682 0.041366)
(0.037859 -0.012795 0.046713)
(-0.014782 0.031069 0.006993)
(-0.019154 0.028079 0.002635)
(-0.021863 0.020788 -0.015146)
(-0.020665 0.019527 -0.018675)
(-0.011257 0.014779 -0.030575)
(-0.005264 0.012819 -0.03413)
(0.002477 0.010649 -0.036613)
(0.033666 0.002878 -0.029019)
(0.035578 0.002358 -0.027498)
(0.044517 -0.000457 -0.017345)
(0.051217 -0.003911 -0.000994)
(0.052032 -0.006887 0.015172)
(0.050886 -0.008081 0.021886)
(0.046176 -0.010418 0.034645)
(-0.018262 0.028749 0.003852)
(-0.022578 0.023744 -0.007025)
(-0.02262 0.022445 -0.010501)
(-0.022141 0.021155 -0.014049)
(-0.014447 0.015986 -0.027838)
(-0.008515 0.013799 -0.032442)
(-0.003266 0.012199 -0.034981)
(0.008759 0.00902 -0.037285)
(0.021786 0.005852 -0.035271)
(0.031681 0.003372 -0.030434)
(0.04309 2.1e-05 -0.019444)
(0.045372 -0.000811 -0.015981)
(0.047785 -0.001834 -0.011399)
(0.042703 -0.011576 0.040505)
(-0.017797 0.029069 0.004426)
(-0.022467 0.021772 -0.012261)
(-0.019867 0.018817 -0.020478)
(-0.012924 0.015335 -0.029266)
(-0.00529 0.012759 -0.034147)
(0.002457 0.010587 -0.036633)
(0.044521 -0.000522 -0.017363)
(-0.016832 0.029711 0.005444)
(-0.018282 0.028703 0.003898)
(-0.021567 0.025713 -0.002054)
(-0.022177 0.021099 -0.014036)
(-0.014478 0.015926 -0.027843)
(-0.006695 0.01315 -0.033478)
(-0.001213 0.011548 -0.035713)
(0.008743 0.008956 -0.037301)
(0.025762 0.004811 -0.033725)
(0.050194 -0.003221 -0.005058)
(0.050901 -0.008181 0.021871)
(-0.017811 0.02902 0.004471)
(-0.0033 0.012105 -0.034996)
(0.002438 0.010523 -0.036642)
(0.044516 -0.000589 -0.017375)
(0.051886 -0.007259 0.016494)
(-0.016839 0.02966 0.005488)
(-0.020023 0.027278 0.001453)
(-0.022075 0.024958 -0.003661)
(-0.005322 0.012663 -0.034153)
(-0.001232 0.011483 -0.035716)
(0.045362 -0.000943 -0.016006)
(0.052041 -0.007053 0.015144)
(0.044241 -0.011244 0.0381)
(-0.022214 0.021008 -0.014011)
(-0.021425 0.019977 -0.016894)
(0.010998 0.008294 -0.03728)
(0.03004 0.003626 -0.031478)
(0.046618 -0.001487 -0.013757)
(0.051211 -0.004109 -0.001031)
(0.051882 -0.004854 0.002922)
(0.044237 -0.011277 0.038091)
(-0.006731 0.01302 -0.03347)
(0.017497 0.006678 -0.036454)
(0.02791 0.004134 -0.032665)
(0.045343 -0.001008 -0.016009)
(0.051676 -0.004631 0.001556)
(0.050883 -0.008312 0.021843)
(0.0474 -0.010176 0.032079)
(0.045631 -0.010844 0.035642)
(0.042703 -0.011774 0.040466)
(0.03857 -0.012889 0.045887)
(-0.016698 0.016741 -0.025425)
(-0.011345 0.014528 -0.030571)
(-0.008584 0.013575 -0.032435)
(0.038657 0.001199 -0.024645)
(0.044478 -0.000718 -0.017382)
(0.047745 -0.002063 -0.01143)
(0.050582 -0.008553 0.023008)
(0.049815 -0.009039 0.025702)