/*--------------------------------*- C++ -*----------------------------------*\
| =========                 |                                                 |
| \\      /  F ield         | OpenFOAM: The Open Source CFD Toolbox           |
|  \\    /   O peration     | Version:  2206                                  |
|   \\  /    A nd           | Website:  www.openfoam.com                      |
|    \\/     M anipulation  |                                                 |
\*---------------------------------------------------------------------------*/
FoamFile
{
    version     2.0;
    format      ascii;
    arch        "LSB;label=32;scalar=64";
    class       featureEdgeMesh;
    location    "constant/triSurface";
    object      innerCylinderSmall.eMesh;
}
// * * * * * * * * * * * * * * * * * * * * * * * * * * * * * * * * * * * * * //


// points:

120
(
(0.12 0.06 0)
(0.12 -0.08 0)
(0.119343 0.06 -0.0125434)
(0.119343 -0.08 -0.0125434)
(0.117378 0.06 -0.0249494)
(0.117378 -0.08 -0.0249494)
(0.114127 0.06 -0.037082)
(0.114127 -0.08 -0.037082)
(0.109625 0.06 -0.0488084)
(0.109625 -0.08 -0.0488084)
(0.103923 0.06 -0.06)
(0.103923 -0.08 -0.06)
(0.097082 0.06 -0.0705342)
(0.097082 -0.08 -0.0705342)
(0.0891774 0.06 -0.0802957)
(0.0891774 -0.08 -0.0802957)
(0.0802957 0.06 -0.0891774)
(0.0802957 -0.08 -0.0891774)
(0.0705342 0.06 -0.097082)
(0.0705342 -0.08 -0.097082)
(0.06 0.06 -0.103923)
(0.06 -0.08 -0.103923)
(0.0488084 0.06 -0.109625)
(0.0488084 -0.08 -0.109625)
(0.037082 0.06 -0.114127)
(0.037082 -0.08 -0.114127)
(0.0249494 0.06 -0.117378)
(0.0249494 -0.08 -0.117378)
(0.0125434 0.06 -0.119343)
(0.0125434 -0.08 -0.119343)
(-2.46124e-11 0.06 -0.12)
(-2.46124e-11 -0.08 -0.12)
(-0.0125434 0.06 -0.119343)
(-0.0125434 -0.08 -0.119343)
(-0.0249494 0.06 -0.117378)
(-0.0249494 -0.08 -0.117378)
(-0.037082 0.06 -0.114127)
(-0.037082 -0.08 -0.114127)
(-0.0488084 0.06 -0.109625)
(-0.0488084 -0.08 -0.109625)
(-0.06 0.06 -0.103923)
(-0.06 -0.08 -0.103923)
(-0.0705342 0.06 -0.097082)
(-0.0705342 -0.08 -0.097082)
(-0.0802957 0.06 -0.0891774)
(-0.0802957 -0.08 -0.0891774)
(-0.0891774 0.06 -0.0802957)
(-0.0891774 -0.08 -0.0802957)
(-0.097082 0.06 -0.0705342)
(-0.097082 -0.08 -0.0705342)
(-0.103923 0.06 -0.06)
(-0.103923 -0.08 -0.06)
(-0.109625 0.06 -0.0488084)
(-0.109625 -0.08 -0.0488084)
(-0.114127 0.06 -0.037082)
(-0.114127 -0.08 -0.037082)
(-0.117378 0.06 -0.0249494)
(-0.117378 -0.08 -0.0249494)
(-0.119343 0.06 -0.0125434)
(-0.119343 -0.08 -0.0125434)
(-0.12 0.06 4.92248e-11)
(-0.12 -0.08 4.92248e-11)
(-0.119343 0.06 0.0125434)
(-0.119343 -0.08 0.0125434)
(-0.117378 0.06 0.0249494)
(-0.117378 -0.08 0.0249494)
(-0.114127 0.06 0.037082)
(-0.114127 -0.08 0.037082)
(-0.109625 0.06 0.0488084)
(-0.109625 -0.08 0.0488084)
(-0.103923 0.06 0.06)
(-0.103923 -0.08 0.06)
(-0.097082 0.06 0.0705342)
(-0.097082 -0.08 0.0705342)
(-0.0891774 0.06 0.0802957)
(-0.0891774 -0.08 0.0802957)
(-0.0802957 0.06 0.0891774)
(-0.0802957 -0.08 0.0891774)
(-0.0705342 0.06 0.097082)
(-0.0705342 -0.08 0.097082)
(-0.06 0.06 0.103923)
(-0.06 -0.08 0.103923)
(-0.0488084 0.06 0.109625)
(-0.0488084 -0.08 0.109625)
(-0.037082 0.06 0.114127)
(-0.037082 -0.08 0.114127)
(-0.0249494 0.06 0.117378)
(-0.0249494 -0.08 0.117378)
(-0.0125434 0.06 0.119343)
(-0.0125434 -0.08 0.119343)
(7.38372e-11 0.06 0.12)
(7.38372e-11 -0.08 0.12)
(0.0125434 0.06 0.119343)
(0.0125434 -0.08 0.119343)
(0.0249494 0.06 0.117378)
(0.0249494 -0.08 0.117378)
(0.037082 0.06 0.114127)
(0.037082 -0.08 0.114127)
(0.0488084 0.06 0.109625)
(0.0488084 -0.08 0.109625)
(0.06 0.06 0.103923)
(0.06 -0.08 0.103923)
(0.0705342 0.06 0.097082)
(0.0705342 -0.08 0.097082)
(0.0802957 0.06 0.0891774)
(0.0802957 -0.08 0.0891774)
(0.0891774 0.06 0.0802957)
(0.0891774 -0.08 0.0802957)
(0.097082 0.06 0.0705342)
(0.097082 -0.08 0.0705342)
(0.103923 0.06 0.06)
(0.103923 -0.08 0.06)
(0.109625 0.06 0.0488084)
(0.109625 -0.08 0.0488084)
(0.114127 0.06 0.037082)
(0.114127 -0.08 0.037082)
(0.117378 0.06 0.0249494)
(0.117378 -0.08 0.0249494)
(0.119343 0.06 0.0125434)
(0.119343 -0.08 0.0125434)
)


// edges:

354
(
(0 1)
(2 0)
(3 2)
(1 3)
(4 2)
(5 4)
(3 5)
(6 4)
(7 6)
(5 7)
(8 6)
(9 8)
(7 9)
(10 8)
(11 10)
(9 11)
(12 10)
(13 12)
(11 13)
(14 12)
(15 14)
(13 15)
(16 14)
(17 16)
(15 17)
(18 16)
(19 18)
(17 19)
(20 18)
(21 20)
(19 21)
(22 20)
(23 22)
(21 23)
(24 22)
(25 24)
(23 25)
(26 24)
(27 26)
(25 27)
(28 26)
(29 28)
(27 29)
(30 28)
(31 30)
(29 31)
(32 30)
(33 32)
(31 33)
(34 32)
(35 34)
(33 35)
(36 34)
(37 36)
(35 37)
(38 36)
(39 38)
(37 39)
(40 38)
(41 40)
(39 41)
(42 40)
(43 42)
(41 43)
(44 42)
(45 44)
(43 45)
(46 44)
(47 46)
(45 47)
(48 46)
(49 48)
(47 49)
(50 48)
(51 50)
(49 51)
(52 50)
(53 52)
(51 53)
(54 52)
(55 54)
(53 55)
(56 54)
(57 56)
(55 57)
(58 56)
(59 58)
(57 59)
(60 58)
(61 60)
(59 61)
(62 60)
(63 62)
(61 63)
(64 62)
(65 64)
(63 65)
(66 64)
(67 66)
(65 67)
(68 66)
(69 68)
(67 69)
(70 68)
(71 70)
(69 71)
(72 70)
(73 72)
(71 73)
(74 72)
(75 74)
(73 75)
(76 74)
(77 76)
(75 77)
(78 76)
(79 78)
(77 79)
(80 78)
(81 80)
(79 81)
(82 80)
(83 82)
(81 83)
(84 82)
(85 84)
(83 85)
(86 84)
(87 86)
(85 87)
(88 86)
(89 88)
(87 89)
(90 88)
(91 90)
(89 91)
(92 90)
(93 92)
(91 93)
(94 92)
(95 94)
(93 95)
(96 94)
(97 96)
(95 97)
(98 96)
(99 98)
(97 99)
(100 98)
(101 100)
(99 101)
(102 100)
(103 102)
(101 103)
(104 102)
(105 104)
(103 105)
(106 104)
(107 106)
(105 107)
(108 106)
(109 108)
(107 109)
(110 108)
(111 110)
(109 111)
(112 110)
(113 112)
(111 113)
(114 112)
(115 114)
(113 115)
(116 114)
(117 116)
(115 117)
(118 116)
(119 118)
(117 119)
(0 118)
(119 1)
(5 6)
(13 14)
(19 20)
(23 24)
(29 30)
(35 36)
(43 44)
(49 50)
(53 54)
(59 60)
(65 66)
(73 74)
(79 80)
(83 84)
(89 90)
(95 96)
(103 104)
(109 110)
(113 114)
(119 0)
(1 2)
(3 4)
(7 8)
(9 10)
(11 12)
(15 16)
(17 18)
(21 22)
(25 26)
(27 28)
(31 32)
(33 34)
(37 38)
(39 40)
(41 42)
(45 46)
(47 48)
(51 52)
(55 56)
(57 58)
(61 62)
(63 64)
(67 68)
(69 70)
(71 72)
(75 76)
(77 78)
(81 82)
(85 86)
(87 88)
(91 92)
(93 94)
(97 98)
(99 100)
(101 102)
(105 106)
(107 108)
(111 112)
(115 116)
(117 118)
(6 2)
(8 2)
(8 0)
(8 118)
(10 118)
(10 116)
(10 114)
(10 112)
(10 110)
(10 108)
(10 106)
(10 104)
(10 102)
(10 100)
(10 98)
(10 96)
(10 94)
(10 92)
(10 90)
(10 88)
(10 86)
(10 84)
(10 82)
(10 80)
(10 78)
(10 76)
(12 76)
(14 76)
(14 74)
(14 72)
(14 70)
(14 68)
(14 66)
(14 64)
(14 62)
(14 60)
(14 58)
(14 56)
(14 54)
(14 52)
(14 50)
(14 48)
(14 46)
(14 44)
(14 42)
(16 42)
(18 42)
(18 40)
(18 38)
(18 36)
(18 34)
(18 32)
(18 30)
(18 28)
(18 26)
(18 24)
(18 22)
(115 119)
(113 119)
(113 1)
(113 3)
(111 3)
(111 5)
(111 7)
(111 9)
(111 11)
(111 13)
(111 15)
(111 17)
(111 19)
(111 21)
(111 23)
(111 25)
(111 27)
(111 29)
(111 31)
(111 33)
(111 35)
(111 37)
(111 39)
(111 41)
(111 43)
(111 45)
(109 45)
(107 45)
(107 47)
(107 49)
(107 51)
(107 53)
(107 55)
(107 57)
(107 59)
(107 61)
(107 63)
(107 65)
(107 67)
(107 69)
(107 71)
(107 73)
(107 75)
(107 77)
(107 79)
(105 79)
(103 79)
(103 81)
(103 83)
(103 85)
(103 87)
(103 89)
(103 91)
(103 93)
(103 95)
(103 97)
(103 99)
)

// * * * * * * * * * * * * * * * * * * * * * * * * * * * * * * * * * * * * * //


// ************************************************************************* //
