/*--------------------------------*- C++ -*----------------------------------*\
| =========                 |                                                 |
| \\      /  F ield         | OpenFOAM: The Open Source CFD Toolbox           |
|  \\    /   O peration     | Version:  2206                                  |
|   \\  /    A nd           | Website:  www.openfoam.com                      |
|    \\/     M anipulation  |                                                 |
\*---------------------------------------------------------------------------*/
FoamFile
{
    version     2.0;
    format      ascii;
    arch        "LSB;label=32;scalar=64";
    class       featureEdgeMesh;
    location    "constant/triSurface";
    object      innerCylinder.eMesh;
}
// * * * * * * * * * * * * * * * * * * * * * * * * * * * * * * * * * * * * * //


// points:

100
(
(0.16 0.1 0)
(0.16 -0.6 0)
(0.158738 0.1 -0.0200533)
(0.158738 -0.6 -0.0200533)
(0.154973 0.1 -0.0397904)
(0.154973 -0.6 -0.0397904)
(0.148764 0.1 -0.0588999)
(0.148764 -0.6 -0.0588999)
(0.140209 0.1 -0.0770806)
(0.140209 -0.6 -0.0770806)
(0.129443 0.1 -0.0940456)
(0.129443 -0.6 -0.0940456)
(0.116635 0.1 -0.109528)
(0.116635 -0.6 -0.109528)
(0.101988 0.1 -0.123282)
(0.101988 -0.6 -0.123282)
(0.0857323 0.1 -0.135092)
(0.0857323 -0.6 -0.135092)
(0.0681247 0.1 -0.144772)
(0.0681247 -0.6 -0.144772)
(0.0494427 0.1 -0.152169)
(0.0494427 -0.6 -0.152169)
(0.029981 0.1 -0.157166)
(0.029981 -0.6 -0.157166)
(0.0100465 0.1 -0.159684)
(0.0100465 -0.6 -0.159684)
(-0.0100465 0.1 -0.159684)
(-0.0100465 -0.6 -0.159684)
(-0.029981 0.1 -0.157166)
(-0.029981 -0.6 -0.157166)
(-0.0494427 0.1 -0.152169)
(-0.0494427 -0.6 -0.152169)
(-0.0681247 0.1 -0.144772)
(-0.0681247 -0.6 -0.144772)
(-0.0857323 0.1 -0.135092)
(-0.0857323 -0.6 -0.135092)
(-0.101988 0.1 -0.123282)
(-0.101988 -0.6 -0.123282)
(-0.116635 0.1 -0.109528)
(-0.116635 -0.6 -0.109528)
(-0.129443 0.1 -0.0940456)
(-0.129443 -0.6 -0.0940456)
(-0.140209 0.1 -0.0770806)
(-0.140209 -0.6 -0.0770806)
(-0.148764 0.1 -0.0588999)
(-0.148764 -0.6 -0.0588999)
(-0.154973 0.1 -0.0397904)
(-0.154973 -0.6 -0.0397904)
(-0.158738 0.1 -0.0200533)
(-0.158738 -0.6 -0.0200533)
(-0.16 0.1 6.56331e-11)
(-0.16 -0.6 6.56331e-11)
(-0.158738 0.1 0.0200533)
(-0.158738 -0.6 0.0200533)
(-0.154973 0.1 0.0397904)
(-0.154973 -0.6 0.0397904)
(-0.148764 0.1 0.0588999)
(-0.148764 -0.6 0.0588999)
(-0.140209 0.1 0.0770806)
(-0.140209 -0.6 0.0770806)
(-0.129443 0.1 0.0940456)
(-0.129443 -0.6 0.0940456)
(-0.116635 0.1 0.109528)
(-0.116635 -0.6 0.109528)
(-0.101988 0.1 0.123282)
(-0.101988 -0.6 0.123282)
(-0.0857323 0.1 0.135092)
(-0.0857323 -0.6 0.135092)
(-0.0681247 0.1 0.144772)
(-0.0681247 -0.6 0.144772)
(-0.0494427 0.1 0.152169)
(-0.0494427 -0.6 0.152169)
(-0.029981 0.1 0.157166)
(-0.029981 -0.6 0.157166)
(-0.0100465 0.1 0.159684)
(-0.0100465 -0.6 0.159684)
(0.0100465 0.1 0.159684)
(0.0100465 -0.6 0.159684)
(0.029981 0.1 0.157166)
(0.029981 -0.6 0.157166)
(0.0494427 0.1 0.152169)
(0.0494427 -0.6 0.152169)
(0.0681247 0.1 0.144772)
(0.0681247 -0.6 0.144772)
(0.0857323 0.1 0.135092)
(0.0857323 -0.6 0.135092)
(0.101988 0.1 0.123282)
(0.101988 -0.6 0.123282)
(0.116635 0.1 0.109528)
(0.116635 -0.6 0.109528)
(0.129443 0.1 0.0940456)
(0.129443 -0.6 0.0940456)
(0.140209 0.1 0.0770806)
(0.140209 -0.6 0.0770806)
(0.148764 0.1 0.0588999)
(0.148764 -0.6 0.0588999)
(0.154973 0.1 0.0397904)
(0.154973 -0.6 0.0397904)
(0.158738 0.1 0.0200533)
(0.158738 -0.6 0.0200533)
)


// edges:

294
(
(0 1)
(2 0)
(3 2)
(1 3)
(4 2)
(5 4)
(3 5)
(6 4)
(7 6)
(5 7)
(8 6)
(9 8)
(7 9)
(10 8)
(11 10)
(9 11)
(12 10)
(13 12)
(11 13)
(14 12)
(15 14)
(13 15)
(16 14)
(17 16)
(15 17)
(18 16)
(19 18)
(17 19)
(20 18)
(21 20)
(19 21)
(22 20)
(23 22)
(21 23)
(24 22)
(25 24)
(23 25)
(26 24)
(27 26)
(25 27)
(28 26)
(29 28)
(27 29)
(30 28)
(31 30)
(29 31)
(32 30)
(33 32)
(31 33)
(34 32)
(35 34)
(33 35)
(36 34)
(37 36)
(35 37)
(38 36)
(39 38)
(37 39)
(40 38)
(41 40)
(39 41)
(42 40)
(43 42)
(41 43)
(44 42)
(45 44)
(43 45)
(46 44)
(47 46)
(45 47)
(48 46)
(49 48)
(47 49)
(50 48)
(51 50)
(49 51)
(52 50)
(53 52)
(51 53)
(54 52)
(55 54)
(53 55)
(56 54)
(57 56)
(55 57)
(58 56)
(59 58)
(57 59)
(60 58)
(61 60)
(59 61)
(62 60)
(63 62)
(61 63)
(64 62)
(65 64)
(63 65)
(66 64)
(67 66)
(65 67)
(68 66)
(69 68)
(67 69)
(70 68)
(71 70)
(69 71)
(72 70)
(73 72)
(71 73)
(74 72)
(75 74)
(73 75)
(76 74)
(77 76)
(75 77)
(78 76)
(79 78)
(77 79)
(80 78)
(81 80)
(79 81)
(82 80)
(83 82)
(81 83)
(84 82)
(85 84)
(83 85)
(86 84)
(87 86)
(85 87)
(88 86)
(89 88)
(87 89)
(90 88)
(91 90)
(89 91)
(92 90)
(93 92)
(91 93)
(94 92)
(95 94)
(93 95)
(96 94)
(97 96)
(95 97)
(98 96)
(99 98)
(97 99)
(0 98)
(99 1)
(3 4)
(5 6)
(7 8)
(9 10)
(13 14)
(21 22)
(27 28)
(31 32)
(33 34)
(35 36)
(39 40)
(49 50)
(53 54)
(55 56)
(57 58)
(59 60)
(63 64)
(71 72)
(77 78)
(81 82)
(83 84)
(85 86)
(89 90)
(99 0)
(1 2)
(11 12)
(15 16)
(17 18)
(19 20)
(23 24)
(25 26)
(29 30)
(37 38)
(41 42)
(43 44)
(45 46)
(47 48)
(51 52)
(61 62)
(65 66)
(67 68)
(69 70)
(73 74)
(75 76)
(79 80)
(87 88)
(91 92)
(93 94)
(95 96)
(97 98)
(6 2)
(8 2)
(8 0)
(8 98)
(10 98)
(12 98)
(14 98)
(16 98)
(18 98)
(20 98)
(22 98)
(24 98)
(26 98)
(28 98)
(30 98)
(32 98)
(34 98)
(36 98)
(38 98)
(40 98)
(42 98)
(44 98)
(46 98)
(48 98)
(50 98)
(52 98)
(52 96)
(52 94)
(54 94)
(56 94)
(56 92)
(56 90)
(56 88)
(56 86)
(56 84)
(58 84)
(60 84)
(62 84)
(64 84)
(66 84)
(66 82)
(66 80)
(66 78)
(66 76)
(66 74)
(66 72)
(66 70)
(95 99)
(93 99)
(93 1)
(93 3)
(91 3)
(89 3)
(87 3)
(85 3)
(83 3)
(81 3)
(79 3)
(77 3)
(75 3)
(73 3)
(71 3)
(69 3)
(67 3)
(65 3)
(63 3)
(61 3)
(59 3)
(57 3)
(55 3)
(53 3)
(51 3)
(49 3)
(49 5)
(49 7)
(47 7)
(45 7)
(45 9)
(45 11)
(45 13)
(45 15)
(45 17)
(43 17)
(41 17)
(39 17)
(37 17)
(35 17)
(35 19)
(35 21)
(35 23)
(35 25)
(35 27)
(35 29)
(35 31)
)

// * * * * * * * * * * * * * * * * * * * * * * * * * * * * * * * * * * * * * //


// ************************************************************************* //
