/*--------------------------------*- C++ -*----------------------------------*\
| =========                 |                                                 |
| \\      /  F ield         | OpenFOAM: The Open Source CFD Toolbox           |
|  \\    /   O peration     | Version:  2206                                  |
|   \\  /    A nd           | Website:  www.openfoam.com                      |
|    \\/     M anipulation  |                                                 |
\*---------------------------------------------------------------------------*/
FoamFile
{
    version     2.0;
    format      ascii;
    arch        "LSB;label=32;scalar=64";
    class       featureEdgeMesh;
    location    "constant/triSurface";
    object      outerCylinder.eMesh;
}
// * * * * * * * * * * * * * * * * * * * * * * * * * * * * * * * * * * * * * //


// points:

100
(
(0.3 0.2 0)
(0.3 -0.8 0)
(0.297634 0.2 -0.0376)
(0.297634 -0.8 -0.0376)
(0.290575 0.2 -0.074607)
(0.290575 -0.8 -0.074607)
(0.278933 0.2 -0.110437)
(0.278933 -0.8 -0.110437)
(0.262892 0.2 -0.144526)
(0.262892 -0.8 -0.144526)
(0.242705 0.2 -0.176336)
(0.242705 -0.8 -0.176336)
(0.218691 0.2 -0.205364)
(0.218691 -0.8 -0.205364)
(0.191227 0.2 -0.231154)
(0.191227 -0.8 -0.231154)
(0.160748 0.2 -0.253298)
(0.160748 -0.8 -0.253298)
(0.127734 0.2 -0.271448)
(0.127734 -0.8 -0.271448)
(0.0927051 0.2 -0.285317)
(0.0927051 -0.8 -0.285317)
(0.0562144 0.2 -0.294686)
(0.0562144 -0.8 -0.294686)
(0.0188372 0.2 -0.299408)
(0.0188372 -0.8 -0.299408)
(-0.0188372 0.2 -0.299408)
(-0.0188372 -0.8 -0.299408)
(-0.0562144 0.2 -0.294686)
(-0.0562144 -0.8 -0.294686)
(-0.0927051 0.2 -0.285317)
(-0.0927051 -0.8 -0.285317)
(-0.127734 0.2 -0.271448)
(-0.127734 -0.8 -0.271448)
(-0.160748 0.2 -0.253298)
(-0.160748 -0.8 -0.253298)
(-0.191227 0.2 -0.231154)
(-0.191227 -0.8 -0.231154)
(-0.218691 0.2 -0.205364)
(-0.218691 -0.8 -0.205364)
(-0.242705 0.2 -0.176336)
(-0.242705 -0.8 -0.176336)
(-0.262892 0.2 -0.144526)
(-0.262892 -0.8 -0.144526)
(-0.278933 0.2 -0.110437)
(-0.278933 -0.8 -0.110437)
(-0.290575 0.2 -0.074607)
(-0.290575 -0.8 -0.074607)
(-0.297634 0.2 -0.0376)
(-0.297634 -0.8 -0.0376)
(-0.3 0.2 1.23062e-10)
(-0.3 -0.8 1.23062e-10)
(-0.297634 0.2 0.0376)
(-0.297634 -0.8 0.0376)
(-0.290575 0.2 0.074607)
(-0.290575 -0.8 0.074607)
(-0.278933 0.2 0.110437)
(-0.278933 -0.8 0.110437)
(-0.262892 0.2 0.144526)
(-0.262892 -0.8 0.144526)
(-0.242705 0.2 0.176336)
(-0.242705 -0.8 0.176336)
(-0.218691 0.2 0.205364)
(-0.218691 -0.8 0.205364)
(-0.191227 0.2 0.231154)
(-0.191227 -0.8 0.231154)
(-0.160748 0.2 0.253298)
(-0.160748 -0.8 0.253298)
(-0.127734 0.2 0.271448)
(-0.127734 -0.8 0.271448)
(-0.0927051 0.2 0.285317)
(-0.0927051 -0.8 0.285317)
(-0.0562144 0.2 0.294686)
(-0.0562144 -0.8 0.294686)
(-0.0188372 0.2 0.299408)
(-0.0188372 -0.8 0.299408)
(0.0188372 0.2 0.299408)
(0.0188372 -0.8 0.299408)
(0.0562144 0.2 0.294686)
(0.0562144 -0.8 0.294686)
(0.0927051 0.2 0.285317)
(0.0927051 -0.8 0.285317)
(0.127734 0.2 0.271448)
(0.127734 -0.8 0.271448)
(0.160748 0.2 0.253298)
(0.160748 -0.8 0.253298)
(0.191227 0.2 0.231154)
(0.191227 -0.8 0.231154)
(0.218691 0.2 0.205364)
(0.218691 -0.8 0.205364)
(0.242705 0.2 0.176336)
(0.242705 -0.8 0.176336)
(0.262892 0.2 0.144526)
(0.262892 -0.8 0.144526)
(0.278933 0.2 0.110437)
(0.278933 -0.8 0.110437)
(0.290575 0.2 0.074607)
(0.290575 -0.8 0.074607)
(0.297634 0.2 0.0376)
(0.297634 -0.8 0.0376)
)


// edges:

294
(
(0 1)
(2 0)
(3 2)
(1 3)
(4 2)
(5 4)
(3 5)
(6 4)
(7 6)
(5 7)
(8 6)
(9 8)
(7 9)
(10 8)
(11 10)
(9 11)
(12 10)
(13 12)
(11 13)
(14 12)
(15 14)
(13 15)
(16 14)
(17 16)
(15 17)
(18 16)
(19 18)
(17 19)
(20 18)
(21 20)
(19 21)
(22 20)
(23 22)
(21 23)
(24 22)
(25 24)
(23 25)
(26 24)
(27 26)
(25 27)
(28 26)
(29 28)
(27 29)
(30 28)
(31 30)
(29 31)
(32 30)
(33 32)
(31 33)
(34 32)
(35 34)
(33 35)
(36 34)
(37 36)
(35 37)
(38 36)
(39 38)
(37 39)
(40 38)
(41 40)
(39 41)
(42 40)
(43 42)
(41 43)
(44 42)
(45 44)
(43 45)
(46 44)
(47 46)
(45 47)
(48 46)
(49 48)
(47 49)
(50 48)
(51 50)
(49 51)
(52 50)
(53 52)
(51 53)
(54 52)
(55 54)
(53 55)
(56 54)
(57 56)
(55 57)
(58 56)
(59 58)
(57 59)
(60 58)
(61 60)
(59 61)
(62 60)
(63 62)
(61 63)
(64 62)
(65 64)
(63 65)
(66 64)
(67 66)
(65 67)
(68 66)
(69 68)
(67 69)
(70 68)
(71 70)
(69 71)
(72 70)
(73 72)
(71 73)
(74 72)
(75 74)
(73 75)
(76 74)
(77 76)
(75 77)
(78 76)
(79 78)
(77 79)
(80 78)
(81 80)
(79 81)
(82 80)
(83 82)
(81 83)
(84 82)
(85 84)
(83 85)
(86 84)
(87 86)
(85 87)
(88 86)
(89 88)
(87 89)
(90 88)
(91 90)
(89 91)
(92 90)
(93 92)
(91 93)
(94 92)
(95 94)
(93 95)
(96 94)
(97 96)
(95 97)
(98 96)
(99 98)
(97 99)
(0 98)
(99 1)
(1 2)
(3 4)
(5 6)
(17 18)
(19 20)
(27 28)
(29 30)
(35 36)
(37 38)
(39 40)
(41 42)
(51 52)
(53 54)
(55 56)
(67 68)
(69 70)
(77 78)
(79 80)
(85 86)
(87 88)
(89 90)
(91 92)
(7 8)
(9 10)
(11 12)
(13 14)
(15 16)
(21 22)
(23 24)
(25 26)
(31 32)
(33 34)
(43 44)
(45 46)
(47 48)
(49 50)
(57 58)
(59 60)
(61 62)
(63 64)
(65 66)
(71 72)
(73 74)
(75 76)
(81 82)
(83 84)
(93 94)
(95 96)
(97 98)
(99 0)
(8 4)
(10 4)
(12 4)
(14 4)
(16 4)
(18 4)
(20 4)
(22 4)
(24 4)
(26 4)
(28 4)
(30 4)
(32 4)
(34 4)
(36 4)
(38 4)
(40 4)
(42 4)
(44 4)
(46 4)
(46 2)
(46 0)
(46 98)
(46 96)
(48 96)
(50 96)
(52 96)
(54 96)
(54 94)
(54 92)
(56 92)
(58 92)
(58 90)
(58 88)
(58 86)
(60 86)
(62 86)
(64 86)
(64 84)
(64 82)
(64 80)
(64 78)
(64 76)
(64 74)
(64 72)
(64 70)
(64 68)
(93 97)
(91 97)
(89 97)
(87 97)
(85 97)
(83 97)
(81 97)
(79 97)
(77 97)
(75 97)
(73 97)
(71 97)
(69 97)
(67 97)
(65 97)
(63 97)
(61 97)
(59 97)
(57 97)
(55 97)
(53 97)
(51 97)
(49 97)
(47 97)
(47 99)
(47 1)
(47 3)
(45 3)
(43 3)
(43 5)
(43 7)
(43 9)
(43 11)
(43 13)
(43 15)
(41 15)
(39 15)
(37 15)
(37 17)
(37 19)
(37 21)
(37 23)
(37 25)
(37 27)
(37 29)
(37 31)
(37 33)
)

// * * * * * * * * * * * * * * * * * * * * * * * * * * * * * * * * * * * * * //


// ************************************************************************* //
