/*--------------------------------*- C++ -*----------------------------------*\
| =========                 |                                                 |
| \\      /  F ield         | OpenFOAM: The Open Source CFD Toolbox           |
|  \\    /   O peration     | Version:  2206                                  |
|   \\  /    A nd           | Website:  www.openfoam.com                      |
|    \\/     M anipulation  |                                                 |
\*---------------------------------------------------------------------------*/
FoamFile
{
    version     2.0;
    format      ascii;
    arch        "LSB;label=32;scalar=64";
    class       extendedFeatureEdgeMesh;
    location    "constant/extendedFeatureEdgeMesh";
    object      innerCylinderSmall.extendedFeatureEdgeMesh;
}
// * * * * * * * * * * * * * * * * * * * * * * * * * * * * * * * * * * * * * //

// points

120
(
(0.12 0.06 0)
(0.12 -0.08 0)
(0.119343 0.06 -0.0125434)
(0.119343 -0.08 -0.0125434)
(0.117378 0.06 -0.0249494)
(0.117378 -0.08 -0.0249494)
(0.114127 0.06 -0.037082)
(0.114127 -0.08 -0.037082)
(0.109625 0.06 -0.0488084)
(0.109625 -0.08 -0.0488084)
(0.103923 0.06 -0.06)
(0.103923 -0.08 -0.06)
(0.097082 0.06 -0.0705342)
(0.097082 -0.08 -0.0705342)
(0.0891774 0.06 -0.0802957)
(0.0891774 -0.08 -0.0802957)
(0.0802957 0.06 -0.0891774)
(0.0802957 -0.08 -0.0891774)
(0.0705342 0.06 -0.097082)
(0.0705342 -0.08 -0.097082)
(0.06 0.06 -0.103923)
(0.06 -0.08 -0.103923)
(0.0488084 0.06 -0.109625)
(0.0488084 -0.08 -0.109625)
(0.037082 0.06 -0.114127)
(0.037082 -0.08 -0.114127)
(0.0249494 0.06 -0.117378)
(0.0249494 -0.08 -0.117378)
(0.0125434 0.06 -0.119343)
(0.0125434 -0.08 -0.119343)
(-2.46124e-11 0.06 -0.12)
(-2.46124e-11 -0.08 -0.12)
(-0.0125434 0.06 -0.119343)
(-0.0125434 -0.08 -0.119343)
(-0.0249494 0.06 -0.117378)
(-0.0249494 -0.08 -0.117378)
(-0.037082 0.06 -0.114127)
(-0.037082 -0.08 -0.114127)
(-0.0488084 0.06 -0.109625)
(-0.0488084 -0.08 -0.109625)
(-0.06 0.06 -0.103923)
(-0.06 -0.08 -0.103923)
(-0.0705342 0.06 -0.097082)
(-0.0705342 -0.08 -0.097082)
(-0.0802957 0.06 -0.0891774)
(-0.0802957 -0.08 -0.0891774)
(-0.0891774 0.06 -0.0802957)
(-0.0891774 -0.08 -0.0802957)
(-0.097082 0.06 -0.0705342)
(-0.097082 -0.08 -0.0705342)
(-0.103923 0.06 -0.06)
(-0.103923 -0.08 -0.06)
(-0.109625 0.06 -0.0488084)
(-0.109625 -0.08 -0.0488084)
(-0.114127 0.06 -0.037082)
(-0.114127 -0.08 -0.037082)
(-0.117378 0.06 -0.0249494)
(-0.117378 -0.08 -0.0249494)
(-0.119343 0.06 -0.0125434)
(-0.119343 -0.08 -0.0125434)
(-0.12 0.06 4.92248e-11)
(-0.12 -0.08 4.92248e-11)
(-0.119343 0.06 0.0125434)
(-0.119343 -0.08 0.0125434)
(-0.117378 0.06 0.0249494)
(-0.117378 -0.08 0.0249494)
(-0.114127 0.06 0.037082)
(-0.114127 -0.08 0.037082)
(-0.109625 0.06 0.0488084)
(-0.109625 -0.08 0.0488084)
(-0.103923 0.06 0.06)
(-0.103923 -0.08 0.06)
(-0.097082 0.06 0.0705342)
(-0.097082 -0.08 0.0705342)
(-0.0891774 0.06 0.0802957)
(-0.0891774 -0.08 0.0802957)
(-0.0802957 0.06 0.0891774)
(-0.0802957 -0.08 0.0891774)
(-0.0705342 0.06 0.097082)
(-0.0705342 -0.08 0.097082)
(-0.06 0.06 0.103923)
(-0.06 -0.08 0.103923)
(-0.0488084 0.06 0.109625)
(-0.0488084 -0.08 0.109625)
(-0.037082 0.06 0.114127)
(-0.037082 -0.08 0.114127)
(-0.0249494 0.06 0.117378)
(-0.0249494 -0.08 0.117378)
(-0.0125434 0.06 0.119343)
(-0.0125434 -0.08 0.119343)
(7.38372e-11 0.06 0.12)
(7.38372e-11 -0.08 0.12)
(0.0125434 0.06 0.119343)
(0.0125434 -0.08 0.119343)
(0.0249494 0.06 0.117378)
(0.0249494 -0.08 0.117378)
(0.037082 0.06 0.114127)
(0.037082 -0.08 0.114127)
(0.0488084 0.06 0.109625)
(0.0488084 -0.08 0.109625)
(0.06 0.06 0.103923)
(0.06 -0.08 0.103923)
(0.0705342 0.06 0.097082)
(0.0705342 -0.08 0.097082)
(0.0802957 0.06 0.0891774)
(0.0802957 -0.08 0.0891774)
(0.0891774 0.06 0.0802957)
(0.0891774 -0.08 0.0802957)
(0.097082 0.06 0.0705342)
(0.097082 -0.08 0.0705342)
(0.103923 0.06 0.06)
(0.103923 -0.08 0.06)
(0.109625 0.06 0.0488084)
(0.109625 -0.08 0.0488084)
(0.114127 0.06 0.037082)
(0.114127 -0.08 0.037082)
(0.117378 0.06 0.0249494)
(0.117378 -0.08 0.0249494)
(0.119343 0.06 0.0125434)
(0.119343 -0.08 0.0125434)
)

// edges

354
(
(0 1)
(2 0)
(3 2)
(1 3)
(4 2)
(5 4)
(3 5)
(6 4)
(7 6)
(5 7)
(8 6)
(9 8)
(7 9)
(10 8)
(11 10)
(9 11)
(12 10)
(13 12)
(11 13)
(14 12)
(15 14)
(13 15)
(16 14)
(17 16)
(15 17)
(18 16)
(19 18)
(17 19)
(20 18)
(21 20)
(19 21)
(22 20)
(23 22)
(21 23)
(24 22)
(25 24)
(23 25)
(26 24)
(27 26)
(25 27)
(28 26)
(29 28)
(27 29)
(30 28)
(31 30)
(29 31)
(32 30)
(33 32)
(31 33)
(34 32)
(35 34)
(33 35)
(36 34)
(37 36)
(35 37)
(38 36)
(39 38)
(37 39)
(40 38)
(41 40)
(39 41)
(42 40)
(43 42)
(41 43)
(44 42)
(45 44)
(43 45)
(46 44)
(47 46)
(45 47)
(48 46)
(49 48)
(47 49)
(50 48)
(51 50)
(49 51)
(52 50)
(53 52)
(51 53)
(54 52)
(55 54)
(53 55)
(56 54)
(57 56)
(55 57)
(58 56)
(59 58)
(57 59)
(60 58)
(61 60)
(59 61)
(62 60)
(63 62)
(61 63)
(64 62)
(65 64)
(63 65)
(66 64)
(67 66)
(65 67)
(68 66)
(69 68)
(67 69)
(70 68)
(71 70)
(69 71)
(72 70)
(73 72)
(71 73)
(74 72)
(75 74)
(73 75)
(76 74)
(77 76)
(75 77)
(78 76)
(79 78)
(77 79)
(80 78)
(81 80)
(79 81)
(82 80)
(83 82)
(81 83)
(84 82)
(85 84)
(83 85)
(86 84)
(87 86)
(85 87)
(88 86)
(89 88)
(87 89)
(90 88)
(91 90)
(89 91)
(92 90)
(93 92)
(91 93)
(94 92)
(95 94)
(93 95)
(96 94)
(97 96)
(95 97)
(98 96)
(99 98)
(97 99)
(100 98)
(101 100)
(99 101)
(102 100)
(103 102)
(101 103)
(104 102)
(105 104)
(103 105)
(106 104)
(107 106)
(105 107)
(108 106)
(109 108)
(107 109)
(110 108)
(111 110)
(109 111)
(112 110)
(113 112)
(111 113)
(114 112)
(115 114)
(113 115)
(116 114)
(117 116)
(115 117)
(118 116)
(119 118)
(117 119)
(0 118)
(119 1)
(5 6)
(13 14)
(19 20)
(23 24)
(29 30)
(35 36)
(43 44)
(49 50)
(53 54)
(59 60)
(65 66)
(73 74)
(79 80)
(83 84)
(89 90)
(95 96)
(103 104)
(109 110)
(113 114)
(119 0)
(1 2)
(3 4)
(7 8)
(9 10)
(11 12)
(15 16)
(17 18)
(21 22)
(25 26)
(27 28)
(31 32)
(33 34)
(37 38)
(39 40)
(41 42)
(45 46)
(47 48)
(51 52)
(55 56)
(57 58)
(61 62)
(63 64)
(67 68)
(69 70)
(71 72)
(75 76)
(77 78)
(81 82)
(85 86)
(87 88)
(91 92)
(93 94)
(97 98)
(99 100)
(101 102)
(105 106)
(107 108)
(111 112)
(115 116)
(117 118)
(6 2)
(8 2)
(8 0)
(8 118)
(10 118)
(10 116)
(10 114)
(10 112)
(10 110)
(10 108)
(10 106)
(10 104)
(10 102)
(10 100)
(10 98)
(10 96)
(10 94)
(10 92)
(10 90)
(10 88)
(10 86)
(10 84)
(10 82)
(10 80)
(10 78)
(10 76)
(12 76)
(14 76)
(14 74)
(14 72)
(14 70)
(14 68)
(14 66)
(14 64)
(14 62)
(14 60)
(14 58)
(14 56)
(14 54)
(14 52)
(14 50)
(14 48)
(14 46)
(14 44)
(14 42)
(16 42)
(18 42)
(18 40)
(18 38)
(18 36)
(18 34)
(18 32)
(18 30)
(18 28)
(18 26)
(18 24)
(18 22)
(115 119)
(113 119)
(113 1)
(113 3)
(111 3)
(111 5)
(111 7)
(111 9)
(111 11)
(111 13)
(111 15)
(111 17)
(111 19)
(111 21)
(111 23)
(111 25)
(111 27)
(111 29)
(111 31)
(111 33)
(111 35)
(111 37)
(111 39)
(111 41)
(111 43)
(111 45)
(109 45)
(107 45)
(107 47)
(107 49)
(107 51)
(107 53)
(107 55)
(107 57)
(107 59)
(107 61)
(107 63)
(107 65)
(107 67)
(107 69)
(107 71)
(107 73)
(107 75)
(107 77)
(107 79)
(105 79)
(103 79)
(103 81)
(103 83)
(103 85)
(103 87)
(103 89)
(103 91)
(103 93)
(103 95)
(103 97)
(103 99)
)

// concaveStart mixedStart nonFeatureStart
0 0 120
// internalStart flatStart openStart multipleStart
180 180 354 354
// normals

236
(
(0.998631 0 -0.0523064)
(0.998631 -0 0.0523064)
(0 1 -0)
(0.998631 0 -0.0523064)
(0.987687 0 -0.156441)
(-0 -1 0)
(0 1 -0)
(0.987687 0 -0.156441)
(0.965924 0 -0.258825)
(-0 -1 0)
(0.965924 0 -0.258825)
(0.933563 0 -0.358414)
(-0 -1 0)
(0 1 -0)
(0.933563 0 -0.358414)
(0.89102 0 -0.453965)
(-0 -1 0)
(0 1 -0)
(0.89102 0 -0.453965)
(0.83867 0 -0.54464)
(-0 -1 0)
(0 1 0)
(0.83867 0 -0.54464)
(0.77715 0 -0.629315)
(-0 -1 0)
(0.77715 0 -0.629315)
(0 1 0)
(0.707107 0 -0.707107)
(-0 -1 0)
(0 1 0)
(0.707107 0 -0.707107)
(0.629315 0 -0.77715)
(-0 -1 0)
(0 1 0)
(0.629315 0 -0.77715)
(0.54464 0 -0.83867)
(-0 -1 0)
(0.54464 0 -0.83867)
(0 1 -0)
(0.453965 0 -0.89102)
(-0 -1 0)
(0.453965 0 -0.89102)
(0.358414 0 -0.933563)
(-0 -1 0)
(0.358414 0 -0.933563)
(0 1 0)
(0.258825 0 -0.965924)
(-0 -1 0)
(0 1 0)
(0.258825 0 -0.965924)
(0.156441 0 -0.987687)
(-0 -1 0)
(0 1 0)
(0.156441 0 -0.987687)
(0.0523064 0 -0.998631)
(-0 -1 0)
(0.0523064 0 -0.998631)
(0 1 0)
(-0.0523064 -0 -0.998631)
(-0 -1 0)
(-0 1 0)
(-0.0523064 0 -0.998631)
(-0.156441 -0 -0.987687)
(0 -1 0)
(-0 1 0)
(-0.156441 -0 -0.987687)
(-0.258825 -0 -0.965924)
(0 -1 0)
(-0.258825 0 -0.965924)
(-0 1 0)
(-0.358414 -0 -0.933563)
(0 -1 0)
(-0 1 0)
(-0.358414 0 -0.933563)
(-0.453965 -0 -0.89102)
(0 -1 0)
(-0 1 0)
(-0.453965 -0 -0.89102)
(-0.54464 -0 -0.83867)
(0 -1 0)
(-0 1 0)
(-0.54464 -0 -0.83867)
(-0.629315 -0 -0.77715)
(0 -1 0)
(-0.629315 0 -0.77715)
(-0 1 0)
(-0.707107 -0 -0.707107)
(0 -1 0)
(-0 1 0)
(-0.707107 0 -0.707107)
(-0.77715 -0 -0.629315)
(0 -1 0)
(0 1 0)
(-0.77715 0 -0.629315)
(-0.83867 -0 -0.54464)
(0 -1 0)
(-0.83867 -0 -0.54464)
(0 1 0)
(-0.89102 -0 -0.453965)
(0 -1 0)
(0 1 0)
(-0.89102 -0 -0.453965)
(-0.933563 -0 -0.358414)
(0 -1 0)
(-0.933563 0 -0.358414)
(0 1 0)
(-0.965924 -0 -0.258825)
(0 -1 0)
(0 1 0)
(-0.965924 0 -0.258825)
(-0.987687 -0 -0.156441)
(0 -1 0)
(0 1 0)
(-0.987687 -0 -0.156441)
(-0.998631 -0 -0.0523064)
(0 -1 0)
(-0.998631 0 -0.0523064)
(0 1 0)
(-0.998631 0 0.0523064)
(0 -1 0)
(0 1 0)
(-0.998631 0 0.0523064)
(-0.987687 0 0.156441)
(0 -1 0)
(0 1 0)
(-0.987687 0 0.156441)
(-0.965924 0 0.258825)
(0 -1 0)
(-0.965924 0 0.258825)
(0 1 0)
(-0.933563 0 0.358414)
(0 -1 0)
(0 1 0)
(-0.933563 0 0.358414)
(-0.89102 0 0.453965)
(0 -1 0)
(0 1 0)
(-0.89102 0 0.453965)
(-0.83867 0 0.54464)
(0 -1 0)
(0 1 0)
(-0.83867 0 0.54464)
(-0.77715 0 0.629315)
(0 -1 0)
(-0.77715 0 0.629315)
(0 1 0)
(-0.707107 0 0.707107)
(0 -1 0)
(0 1 0)
(-0.707107 0 0.707107)
(-0.629315 0 0.77715)
(0 -1 0)
(0 1 0)
(-0.629315 0 0.77715)
(-0.54464 0 0.83867)
(0 -1 0)
(-0.54464 0 0.83867)
(0 1 0)
(-0.453965 0 0.89102)
(0 -1 0)
(0 1 0)
(-0.453965 0 0.89102)
(-0.358414 0 0.933563)
(0 -1 0)
(-0.358414 0 0.933563)
(0 1 0)
(-0.258825 0 0.965924)
(0 -1 0)
(0 1 0)
(-0.258825 0 0.965924)
(-0.156441 0 0.987687)
(0 -1 0)
(0 1 0)
(-0.156441 0 0.987687)
(-0.0523064 0 0.998631)
(0 -1 0)
(-0.0523064 0 0.998631)
(0 1 0)
(0.0523064 0 0.998631)
(0 -1 0)
(0 1 0)
(0.0523064 -0 0.998631)
(0.156441 0 0.987687)
(0 -1 0)
(0 1 0)
(0.156441 0 0.987687)
(0.258825 0 0.965924)
(0 -1 0)
(0.258825 -0 0.965924)
(0 1 0)
(0.358414 0 0.933563)
(0 -1 0)
(0 1 0)
(0.358414 -0 0.933563)
(0.453965 0 0.89102)
(0 -1 0)
(0 1 0)
(0.453965 0 0.89102)
(0.54464 0 0.83867)
(-0 -1 -0)
(0 1 0)
(0.54464 0 0.83867)
(0.629315 0 0.77715)
(0.629315 -0 0.77715)
(0 1 0)
(0.707107 0 0.707107)
(0 -1 0)
(0 1 0)
(0.707107 -0 0.707107)
(0.77715 0 0.629315)
(0 -1 0)
(0 1 0)
(0.77715 -0 0.629315)
(0.83867 0 0.54464)
(-0 -1 0)
(0.83867 0 0.54464)
(0 1 0)
(0.89102 0 0.453965)
(-0 -1 0)
(0 1 0)
(0.89102 0 0.453965)
(0.933563 0 0.358414)
(-0 -1 -0)
(0.933563 -0 0.358414)
(0 1 0)
(0.965924 0 0.258825)
(-0 -1 -0)
(0 1 0)
(0.965924 -0 0.258825)
(0.987687 0 0.156441)
(-0 -1 -0)
(0 1 0)
(0.987687 0 0.156441)
(0.998631 0 0.0523064)
(0 1 0)
(-0 -1 -0)
)

// normal volume types

236
(
0
0
0
0
0
0
0
0
0
0
0
0
0
0
0
0
0
0
0
0
0
0
0
0
0
0
0
0
0
0
0
0
0
0
0
0
0
0
0
0
0
0
0
0
0
0
0
0
0
0
0
0
0
0
0
0
0
0
0
0
0
0
0
0
0
0
0
0
0
0
0
0
0
0
0
0
0
0
0
0
0
0
0
0
0
0
0
0
0
0
0
0
0
0
0
0
0
0
0
0
0
0
0
0
0
0
0
0
0
0
0
0
0
0
0
0
0
0
0
0
0
0
0
0
0
0
0
0
0
0
0
0
0
0
0
0
0
0
0
0
0
0
0
0
0
0
0
0
0
0
0
0
0
0
0
0
0
0
0
0
0
0
0
0
0
0
0
0
0
0
0
0
0
0
0
0
0
0
0
0
0
0
0
0
0
0
0
0
0
0
0
0
0
0
0
0
0
0
0
0
0
0
0
0
0
0
0
0
0
0
0
0
0
0
0
0
0
0
0
0
0
0
0
0
0
0
0
0
0
0
0
0
0
0
0
0
)

// normalDirections

354
(
2(1 -1)
2(1 -1)
2(1 -1)
2(1 -1)
2(1 -1)
2(1 -1)
2(1 -1)
2(1 -1)
2(1 -1)
2(1 -1)
2(1 -1)
2(1 -1)
2(1 -1)
2(1 -1)
2(1 -1)
2(1 -1)
2(1 -1)
2(1 -1)
2(1 -1)
2(1 -1)
2(1 -1)
2(1 -1)
2(1 -1)
2(1 -1)
2(1 -1)
2(1 -1)
2(1 -1)
2(1 -1)
2(1 -1)
2(1 -1)
2(1 -1)
2(1 -1)
2(1 -1)
2(1 -1)
2(1 -1)
2(1 -1)
2(1 -1)
2(1 -1)
2(1 -1)
2(1 -1)
2(1 -1)
2(1 -1)
2(1 -1)
2(1 -1)
2(1 -1)
2(1 -1)
2(1 -1)
2(1 -1)
2(1 -1)
2(1 -1)
2(1 -1)
2(1 -1)
2(1 -1)
2(1 -1)
2(1 -1)
2(1 -1)
2(1 -1)
2(1 -1)
2(1 -1)
2(1 -1)
2(1 -1)
2(1 -1)
2(1 -1)
2(1 -1)
2(1 -1)
2(1 -1)
2(1 -1)
2(1 -1)
2(1 -1)
2(1 -1)
2(1 -1)
2(1 -1)
2(1 -1)
2(1 -1)
2(1 -1)
2(1 -1)
2(1 -1)
2(1 -1)
2(1 -1)
2(1 -1)
2(1 -1)
2(1 -1)
2(1 -1)
2(1 -1)
2(1 -1)
2(1 -1)
2(1 -1)
2(1 -1)
2(1 -1)
2(1 -1)
2(1 -1)
2(1 -1)
2(1 -1)
2(1 -1)
2(1 -1)
2(1 -1)
2(1 -1)
2(1 -1)
2(1 -1)
2(1 -1)
2(1 -1)
2(1 -1)
2(1 -1)
2(1 -1)
2(1 -1)
2(1 -1)
2(1 -1)
2(1 -1)
2(1 -1)
2(1 -1)
2(1 -1)
2(1 -1)
2(1 -1)
2(1 -1)
2(1 -1)
2(1 -1)
2(1 -1)
2(1 -1)
2(1 -1)
2(1 -1)
2(1 -1)
2(1 -1)
2(1 -1)
2(1 -1)
2(1 -1)
2(1 -1)
2(1 -1)
2(1 -1)
2(1 -1)
2(1 -1)
2(1 -1)
2(1 -1)
2(1 -1)
2(1 -1)
2(1 -1)
2(1 -1)
2(1 -1)
2(1 -1)
2(1 -1)
2(1 -1)
2(1 -1)
2(1 -1)
2(1 -1)
2(1 -1)
2(1 -1)
2(1 -1)
2(1 -1)
2(1 -1)
2(1 -1)
2(1 -1)
2(1 -1)
2(1 -1)
2(1 -1)
2(1 -1)
2(1 -1)
2(1 -1)
2(1 -1)
2(1 -1)
2(1 -1)
2(1 -1)
2(1 -1)
2(1 -1)
2(1 -1)
2(1 -1)
2(1 -1)
2(1 -1)
2(1 -1)
2(1 -1)
2(1 -1)
2(1 -1)
2(1 -1)
2(1 -1)
2(1 -1)
2(1 -1)
2(1 -1)
2(1 -1)
2(1 -1)
2(1 -1)
2(1 -1)
2(1 -1)
2(1 -1)
2(1 -1)
2(1 -1)
2(1 -1)
2(1 -1)
2(1 -1)
2(1 -1)
2(1 -1)
2(1 -1)
2(1 -1)
2(1 -1)
2(1 -1)
2(1 -1)
2(1 -1)
2(1 -1)
2(1 -1)
2(1 -1)
2(1 -1)
2(1 -1)
2(1 -1)
2(1 -1)
2(1 -1)
2(1 -1)
2(1 -1)
2(1 -1)
2(1 -1)
2(1 -1)
2(1 -1)
2(1 -1)
2(1 -1)
2(1 -1)
2(1 -1)
2(1 -1)
2(1 -1)
2(1 -1)
2(1 -1)
2(1 -1)
2(1 -1)
2(1 -1)
2(1 -1)
2(1 -1)
2(1 -1)
2(1 -1)
2(1 -1)
2(1 -1)
2(1 -1)
2(1 -1)
2(1 -1)
2(1 -1)
2(1 -1)
2(1 -1)
2(1 -1)
2(1 -1)
2(1 -1)
2(1 -1)
2(1 -1)
2(1 -1)
2(1 -1)
2(1 -1)
2(1 -1)
2(1 -1)
2(1 -1)
2(1 -1)
2(1 -1)
2(1 -1)
2(1 -1)
2(1 -1)
2(1 -1)
2(1 -1)
2(1 -1)
2(1 -1)
2(1 -1)
2(1 -1)
2(1 -1)
2(1 -1)
2(1 -1)
2(1 -1)
2(1 -1)
2(1 -1)
2(1 -1)
2(1 -1)
2(1 -1)
2(1 -1)
2(1 -1)
2(1 -1)
2(1 -1)
2(1 -1)
2(1 -1)
2(1 -1)
2(1 -1)
2(1 -1)
2(1 -1)
2(1 -1)
2(1 -1)
2(1 -1)
2(1 -1)
2(1 -1)
2(1 -1)
2(1 -1)
2(1 -1)
2(1 -1)
2(1 -1)
2(1 -1)
2(1 -1)
2(1 -1)
2(1 -1)
2(1 -1)
2(1 -1)
2(1 -1)
2(1 -1)
2(1 -1)
2(1 -1)
2(1 -1)
2(1 -1)
2(1 -1)
2(1 -1)
2(1 -1)
2(1 -1)
2(1 -1)
2(1 -1)
2(1 -1)
2(1 -1)
2(1 -1)
2(1 -1)
2(1 -1)
2(1 -1)
2(1 -1)
2(1 -1)
2(1 -1)
2(1 -1)
2(1 -1)
2(1 -1)
2(1 -1)
2(1 -1)
2(1 -1)
2(1 -1)
2(1 -1)
2(1 -1)
2(1 -1)
2(1 -1)
2(1 -1)
2(1 -1)
2(1 -1)
2(1 -1)
2(1 -1)
2(1 -1)
2(1 -1)
2(1 -1)
2(1 -1)
2(1 -1)
2(1 -1)
2(1 -1)
2(1 -1)
2(1 -1)
2(1 -1)
2(1 -1)
2(1 -1)
2(1 -1)
2(1 -1)
2(1 -1)
2(1 -1)
2(1 -1)
2(1 -1)
2(1 -1)
2(1 -1)
2(1 -1)
2(1 -1)
2(1 -1)
2(1 -1)
2(1 -1)
2(1 -1)
2(1 -1)
2(1 -1)
2(1 -1)
)

// edgeNormals

354
(
2(0 1)
2(0 2)
2(3 4)
2(3 5)
2(4 6)
2(7 8)
2(7 9)
2(8 6)
2(10 11)
2(10 12)
2(11 13)
2(14 15)
2(14 16)
2(15 17)
2(18 19)
2(18 20)
2(19 21)
2(22 23)
2(22 24)
2(23 26)
2(25 27)
2(25 28)
2(27 29)
2(30 31)
2(30 32)
2(31 33)
2(34 35)
2(34 36)
2(35 38)
2(37 39)
2(37 40)
2(39 38)
2(41 42)
2(41 43)
2(42 45)
2(44 46)
2(44 47)
2(46 48)
2(49 50)
2(49 51)
2(50 52)
2(53 54)
2(53 55)
2(54 57)
2(56 58)
2(56 59)
2(58 60)
2(61 62)
2(61 63)
2(62 64)
2(65 66)
2(65 67)
2(66 69)
2(68 70)
2(68 71)
2(70 72)
2(73 74)
2(73 75)
2(74 76)
2(77 78)
2(77 79)
2(78 80)
2(81 82)
2(81 83)
2(82 85)
2(84 86)
2(84 87)
2(86 88)
2(89 90)
2(89 91)
2(90 92)
2(93 94)
2(93 95)
2(94 97)
2(96 98)
2(96 99)
2(98 100)
2(101 102)
2(101 103)
2(102 105)
2(104 106)
2(104 107)
2(106 108)
2(109 110)
2(109 111)
2(110 112)
2(113 114)
2(113 115)
2(114 117)
2(116 118)
2(116 119)
2(118 120)
2(121 122)
2(121 123)
2(122 124)
2(125 126)
2(125 127)
2(126 129)
2(128 130)
2(128 131)
2(130 132)
2(133 134)
2(133 135)
2(134 136)
2(137 138)
2(137 139)
2(138 140)
2(141 142)
2(141 143)
2(142 145)
2(144 146)
2(144 147)
2(146 148)
2(149 150)
2(149 151)
2(150 152)
2(153 154)
2(153 155)
2(154 157)
2(156 158)
2(156 159)
2(158 160)
2(161 162)
2(161 163)
2(162 165)
2(164 166)
2(164 167)
2(166 168)
2(169 170)
2(169 171)
2(170 172)
2(173 174)
2(173 175)
2(174 177)
2(176 178)
2(176 179)
2(178 180)
2(181 182)
2(181 183)
2(182 184)
2(185 186)
2(185 187)
2(186 189)
2(188 190)
2(188 191)
2(190 192)
2(193 194)
2(193 195)
2(194 196)
2(197 198)
2(197 199)
2(198 200)
2(201 202)
2(201 199)
2(202 204)
2(203 205)
2(203 206)
2(205 207)
2(208 209)
2(208 210)
2(209 211)
2(212 213)
2(212 214)
2(213 216)
2(215 217)
2(215 218)
2(217 219)
2(220 221)
2(220 222)
2(221 224)
2(223 225)
2(223 226)
2(225 227)
2(228 229)
2(228 230)
2(229 231)
2(232 233)
2(232 230)
2(233 234)
2(1 235)
2(8 10)
2(23 25)
2(35 37)
2(42 44)
2(54 56)
2(66 68)
2(82 84)
2(94 96)
2(102 104)
2(114 116)
2(126 128)
2(142 144)
2(154 156)
2(162 164)
2(174 176)
2(186 188)
2(202 203)
2(213 215)
2(221 223)
2(233 1)
2(0 3)
2(4 7)
2(11 14)
2(15 18)
2(19 22)
2(27 30)
2(31 34)
2(39 41)
2(46 49)
2(50 53)
2(58 61)
2(62 65)
2(70 73)
2(74 77)
2(78 81)
2(86 89)
2(90 93)
2(98 101)
2(106 109)
2(110 113)
2(118 121)
2(122 125)
2(130 133)
2(134 137)
2(138 141)
2(146 149)
2(150 153)
2(158 161)
2(166 169)
2(170 173)
2(178 181)
2(182 185)
2(190 193)
2(194 197)
2(198 201)
2(205 208)
2(209 212)
2(217 220)
2(225 228)
2(229 232)
2(6 13)
2(13 2)
2(2 234)
2(234 17)
2(17 231)
2(231 227)
2(227 224)
2(224 219)
2(219 216)
2(216 211)
2(211 207)
2(207 204)
2(204 200)
2(200 196)
2(196 192)
2(192 189)
2(189 184)
2(184 180)
2(180 177)
2(177 172)
2(172 168)
2(168 165)
2(165 160)
2(160 157)
2(157 152)
2(152 21)
2(21 26)
2(26 148)
2(148 145)
2(145 140)
2(140 136)
2(136 132)
2(132 129)
2(129 124)
2(124 120)
2(120 117)
2(117 112)
2(112 108)
2(108 105)
2(105 100)
2(100 97)
2(97 92)
2(92 88)
2(88 85)
2(85 29)
2(29 33)
2(33 80)
2(80 76)
2(76 72)
2(72 69)
2(69 64)
2(64 60)
2(60 57)
2(57 52)
2(52 48)
2(48 45)
2(45 38)
2(230 226)
2(226 235)
2(235 5)
2(5 222)
2(222 9)
2(9 12)
2(12 16)
2(16 20)
2(20 24)
2(24 28)
2(28 32)
2(32 36)
2(36 40)
2(40 43)
2(43 47)
2(47 51)
2(51 55)
2(55 59)
2(59 63)
2(63 67)
2(67 71)
2(71 75)
2(75 79)
2(79 83)
2(83 87)
2(87 218)
2(218 214)
2(214 91)
2(91 95)
2(95 99)
2(99 103)
2(103 107)
2(107 111)
2(111 115)
2(115 119)
2(119 123)
2(123 127)
2(127 131)
2(131 135)
2(135 139)
2(139 143)
2(143 147)
2(147 151)
2(151 155)
2(155 210)
2(210 206)
2(206 159)
2(159 163)
2(163 167)
2(167 171)
2(171 175)
2(175 179)
2(179 183)
2(183 187)
2(187 191)
2(191 195)
2(195 199)
)

// featurePointNormals

120
(
3(0 1 2)
3(0 1 5)
3(0 2 4)
3(3 4 5)
3(4 6 8)
3(7 8 9)
3(8 6 11)
3(10 11 12)
3(11 13 15)
3(14 15 16)
3(15 17 19)
3(18 19 20)
3(19 21 23)
3(22 23 24)
3(23 26 27)
3(25 27 28)
3(27 29 31)
3(30 31 32)
3(31 33 35)
3(34 35 36)
3(35 38 39)
3(37 39 40)
3(39 38 42)
3(41 42 43)
3(42 45 46)
3(44 46 47)
3(46 48 50)
3(49 50 51)
3(50 52 54)
3(53 54 55)
3(54 57 58)
3(56 58 59)
3(58 60 62)
3(61 62 63)
3(62 64 66)
3(65 66 67)
3(66 69 70)
3(68 70 71)
3(70 72 74)
3(73 74 75)
3(74 76 78)
3(77 78 79)
3(78 80 82)
3(81 82 83)
3(82 85 86)
3(84 86 87)
3(86 88 90)
3(89 90 91)
3(90 92 94)
3(93 94 95)
3(94 97 98)
3(96 98 99)
3(98 100 102)
3(101 102 103)
3(102 105 106)
3(104 106 107)
3(106 108 110)
3(109 110 111)
3(110 112 114)
3(113 114 115)
3(114 117 118)
3(116 118 119)
3(118 120 122)
3(121 122 123)
3(122 124 126)
3(125 126 127)
3(126 129 130)
3(128 130 131)
3(130 132 134)
3(133 134 135)
3(134 136 138)
3(137 138 139)
3(138 140 142)
3(141 142 143)
3(142 145 146)
3(144 146 147)
3(146 148 150)
3(149 150 151)
3(150 152 154)
3(153 154 155)
3(154 157 158)
3(156 158 159)
3(158 160 162)
3(161 162 163)
3(162 165 166)
3(164 166 167)
3(166 168 170)
3(169 170 171)
3(170 172 174)
3(173 174 175)
3(174 177 178)
3(176 178 179)
3(178 180 182)
3(181 182 183)
3(182 184 186)
3(185 186 187)
3(186 189 190)
3(188 190 191)
3(190 192 194)
3(193 194 195)
3(194 196 198)
3(197 198 199)
3(198 200 202)
3(201 202 199)
3(202 204 205)
3(203 205 206)
3(205 207 209)
3(208 209 210)
3(209 211 213)
3(212 213 214)
3(213 216 217)
3(215 217 218)
3(217 219 221)
3(220 221 222)
3(221 224 225)
3(223 225 226)
3(225 227 229)
3(228 229 230)
3(229 231 233)
3(232 233 230)
)

// featurePointEdges

120
(
5(0 199 178 242 1)
5(200 3 299 179 0)
6(200 2 4 240 241 1)
6(2 201 6 301 300 3)
4(201 5 7 4)
5(5 180 9 302 6)
5(180 8 10 240 7)
5(8 202 12 303 9)
7(202 11 13 243 242 241 10)
5(11 203 15 304 12)

26
(
203
14
16
265
264
263
262
261
260
259
258
257
256
255
254
253
252
251
250
249
248
247
246
245
244
13
)

5(14 204 18 305 15)
5(204 17 19 266 16)
5(17 181 21 306 18)

22
(
181
20
22
284
283
282
281
280
279
278
277
276
275
274
273
272
271
270
269
268
267
19
)

5(20 205 24 307 21)
5(205 23 25 285 22)
5(23 206 27 308 24)

15
(
206
26
28
296
295
294
293
292
291
290
289
288
287
286
25
)

5(26 182 30 309 27)
4(182 29 31 28)
5(29 207 33 310 30)
5(207 32 34 296 31)
5(32 183 36 311 33)
5(183 35 37 295 34)
5(35 208 39 312 36)
5(208 38 40 294 37)
5(38 209 42 313 39)
5(209 41 43 293 40)
5(41 184 45 314 42)
5(184 44 46 292 43)
5(44 210 48 315 45)
5(210 47 49 291 46)
5(47 211 51 316 48)
5(211 50 52 290 49)
5(50 185 54 317 51)
5(185 53 55 289 52)
5(53 212 57 318 54)
5(212 56 58 288 55)
5(56 213 60 319 57)
5(213 59 61 287 58)
5(59 214 63 320 60)
7(214 62 64 284 285 286 61)
5(62 186 66 321 63)
5(186 65 67 283 64)
7(65 215 69 324 323 322 66)
5(215 68 70 282 67)
5(68 216 72 325 69)
5(216 71 73 281 70)
5(71 187 75 326 72)
5(187 74 76 280 73)
5(74 217 78 327 75)
5(217 77 79 279 76)
5(77 188 81 328 78)
5(188 80 82 278 79)
5(80 218 84 329 81)
5(218 83 85 277 82)
5(83 219 87 330 84)
5(219 86 88 276 85)
5(86 189 90 331 87)
5(189 89 91 275 88)
5(89 220 93 332 90)
5(220 92 94 274 91)
5(92 221 96 333 93)
5(221 95 97 273 94)
5(95 190 99 334 96)
5(190 98 100 272 97)
5(98 222 102 335 99)
5(222 101 103 271 100)
5(101 223 105 336 102)
5(223 104 106 270 103)
5(104 224 108 337 105)
5(224 107 109 269 106)
5(107 191 111 338 108)
5(191 110 112 268 109)
5(110 225 114 339 111)
7(225 113 115 265 266 267 112)
5(113 226 117 340 114)
5(226 116 118 264 115)
7(116 192 120 343 342 341 117)
5(192 119 121 263 118)
5(119 227 123 344 120)
5(227 122 124 262 121)
5(122 193 126 345 123)
5(193 125 127 261 124)
5(125 228 129 346 126)
5(228 128 130 260 127)
5(128 229 132 347 129)
5(229 131 133 259 130)
5(131 194 135 348 132)
5(194 134 136 258 133)
5(134 230 138 349 135)
5(230 137 139 257 136)
5(137 231 141 350 138)
5(231 140 142 256 139)
5(140 195 144 351 141)
5(195 143 145 255 142)
5(143 232 147 352 144)
5(232 146 148 254 145)
5(146 233 150 353 147)
5(233 149 151 253 148)
4(149 234 153 150)
5(234 152 154 252 151)

15
(
152
196
156
343
344
345
346
347
348
349
350
351
352
353
153
)

5(196 155 157 251 154)
5(155 235 159 342 156)
5(235 158 160 250 157)

22
(
158
236
162
324
325
326
327
328
329
330
331
332
333
334
335
336
337
338
339
340
341
159
)

5(236 161 163 249 160)
5(161 197 165 323 162)
5(197 164 166 248 163)

26
(
164
237
168
301
302
303
304
305
306
307
308
309
310
311
312
313
314
315
316
317
318
319
320
321
322
165
)

5(237 167 169 247 166)
7(167 198 171 298 299 300 168)
5(198 170 172 246 169)
5(170 238 174 297 171)
5(238 173 175 245 172)
4(173 239 177 174)
6(239 176 178 243 244 175)
6(176 199 179 298 297 177)
)

// regionEdges
0()


// ************************************************************************* //
