/*--------------------------------*- C++ -*----------------------------------*\
| =========                 |                                                 |
| \\      /  F ield         | OpenFOAM: The Open Source CFD Toolbox           |
|  \\    /   O peration     | Version:  2206                                  |
|   \\  /    A nd           | Website:  www.openfoam.com                      |
|    \\/     M anipulation  |                                                 |
\*---------------------------------------------------------------------------*/
FoamFile
{
    version     2.0;
    format      ascii;
    arch        "LSB;label=32;scalar=64";
    class       extendedFeatureEdgeMesh;
    location    "constant/extendedFeatureEdgeMesh";
    object      innerCylinder.extendedFeatureEdgeMesh;
}
// * * * * * * * * * * * * * * * * * * * * * * * * * * * * * * * * * * * * * //

// points

100
(
(0.16 0.1 0)
(0.16 -0.6 0)
(0.158738 0.1 -0.0200533)
(0.158738 -0.6 -0.0200533)
(0.154973 0.1 -0.0397904)
(0.154973 -0.6 -0.0397904)
(0.148764 0.1 -0.0588999)
(0.148764 -0.6 -0.0588999)
(0.140209 0.1 -0.0770806)
(0.140209 -0.6 -0.0770806)
(0.129443 0.1 -0.0940456)
(0.129443 -0.6 -0.0940456)
(0.116635 0.1 -0.109528)
(0.116635 -0.6 -0.109528)
(0.101988 0.1 -0.123282)
(0.101988 -0.6 -0.123282)
(0.0857323 0.1 -0.135092)
(0.0857323 -0.6 -0.135092)
(0.0681247 0.1 -0.144772)
(0.0681247 -0.6 -0.144772)
(0.0494427 0.1 -0.152169)
(0.0494427 -0.6 -0.152169)
(0.029981 0.1 -0.157166)
(0.029981 -0.6 -0.157166)
(0.0100465 0.1 -0.159684)
(0.0100465 -0.6 -0.159684)
(-0.0100465 0.1 -0.159684)
(-0.0100465 -0.6 -0.159684)
(-0.029981 0.1 -0.157166)
(-0.029981 -0.6 -0.157166)
(-0.0494427 0.1 -0.152169)
(-0.0494427 -0.6 -0.152169)
(-0.0681247 0.1 -0.144772)
(-0.0681247 -0.6 -0.144772)
(-0.0857323 0.1 -0.135092)
(-0.0857323 -0.6 -0.135092)
(-0.101988 0.1 -0.123282)
(-0.101988 -0.6 -0.123282)
(-0.116635 0.1 -0.109528)
(-0.116635 -0.6 -0.109528)
(-0.129443 0.1 -0.0940456)
(-0.129443 -0.6 -0.0940456)
(-0.140209 0.1 -0.0770806)
(-0.140209 -0.6 -0.0770806)
(-0.148764 0.1 -0.0588999)
(-0.148764 -0.6 -0.0588999)
(-0.154973 0.1 -0.0397904)
(-0.154973 -0.6 -0.0397904)
(-0.158738 0.1 -0.0200533)
(-0.158738 -0.6 -0.0200533)
(-0.16 0.1 6.56331e-11)
(-0.16 -0.6 6.56331e-11)
(-0.158738 0.1 0.0200533)
(-0.158738 -0.6 0.0200533)
(-0.154973 0.1 0.0397904)
(-0.154973 -0.6 0.0397904)
(-0.148764 0.1 0.0588999)
(-0.148764 -0.6 0.0588999)
(-0.140209 0.1 0.0770806)
(-0.140209 -0.6 0.0770806)
(-0.129443 0.1 0.0940456)
(-0.129443 -0.6 0.0940456)
(-0.116635 0.1 0.109528)
(-0.116635 -0.6 0.109528)
(-0.101988 0.1 0.123282)
(-0.101988 -0.6 0.123282)
(-0.0857323 0.1 0.135092)
(-0.0857323 -0.6 0.135092)
(-0.0681247 0.1 0.144772)
(-0.0681247 -0.6 0.144772)
(-0.0494427 0.1 0.152169)
(-0.0494427 -0.6 0.152169)
(-0.029981 0.1 0.157166)
(-0.029981 -0.6 0.157166)
(-0.0100465 0.1 0.159684)
(-0.0100465 -0.6 0.159684)
(0.0100465 0.1 0.159684)
(0.0100465 -0.6 0.159684)
(0.029981 0.1 0.157166)
(0.029981 -0.6 0.157166)
(0.0494427 0.1 0.152169)
(0.0494427 -0.6 0.152169)
(0.0681247 0.1 0.144772)
(0.0681247 -0.6 0.144772)
(0.0857323 0.1 0.135092)
(0.0857323 -0.6 0.135092)
(0.101988 0.1 0.123282)
(0.101988 -0.6 0.123282)
(0.116635 0.1 0.109528)
(0.116635 -0.6 0.109528)
(0.129443 0.1 0.0940456)
(0.129443 -0.6 0.0940456)
(0.140209 0.1 0.0770806)
(0.140209 -0.6 0.0770806)
(0.148764 0.1 0.0588999)
(0.148764 -0.6 0.0588999)
(0.154973 0.1 0.0397904)
(0.154973 -0.6 0.0397904)
(0.158738 0.1 0.0200533)
(0.158738 -0.6 0.0200533)
)

// edges

294
(
(0 1)
(2 0)
(3 2)
(1 3)
(4 2)
(5 4)
(3 5)
(6 4)
(7 6)
(5 7)
(8 6)
(9 8)
(7 9)
(10 8)
(11 10)
(9 11)
(12 10)
(13 12)
(11 13)
(14 12)
(15 14)
(13 15)
(16 14)
(17 16)
(15 17)
(18 16)
(19 18)
(17 19)
(20 18)
(21 20)
(19 21)
(22 20)
(23 22)
(21 23)
(24 22)
(25 24)
(23 25)
(26 24)
(27 26)
(25 27)
(28 26)
(29 28)
(27 29)
(30 28)
(31 30)
(29 31)
(32 30)
(33 32)
(31 33)
(34 32)
(35 34)
(33 35)
(36 34)
(37 36)
(35 37)
(38 36)
(39 38)
(37 39)
(40 38)
(41 40)
(39 41)
(42 40)
(43 42)
(41 43)
(44 42)
(45 44)
(43 45)
(46 44)
(47 46)
(45 47)
(48 46)
(49 48)
(47 49)
(50 48)
(51 50)
(49 51)
(52 50)
(53 52)
(51 53)
(54 52)
(55 54)
(53 55)
(56 54)
(57 56)
(55 57)
(58 56)
(59 58)
(57 59)
(60 58)
(61 60)
(59 61)
(62 60)
(63 62)
(61 63)
(64 62)
(65 64)
(63 65)
(66 64)
(67 66)
(65 67)
(68 66)
(69 68)
(67 69)
(70 68)
(71 70)
(69 71)
(72 70)
(73 72)
(71 73)
(74 72)
(75 74)
(73 75)
(76 74)
(77 76)
(75 77)
(78 76)
(79 78)
(77 79)
(80 78)
(81 80)
(79 81)
(82 80)
(83 82)
(81 83)
(84 82)
(85 84)
(83 85)
(86 84)
(87 86)
(85 87)
(88 86)
(89 88)
(87 89)
(90 88)
(91 90)
(89 91)
(92 90)
(93 92)
(91 93)
(94 92)
(95 94)
(93 95)
(96 94)
(97 96)
(95 97)
(98 96)
(99 98)
(97 99)
(0 98)
(99 1)
(3 4)
(5 6)
(7 8)
(9 10)
(13 14)
(21 22)
(27 28)
(31 32)
(33 34)
(35 36)
(39 40)
(49 50)
(53 54)
(55 56)
(57 58)
(59 60)
(63 64)
(71 72)
(77 78)
(81 82)
(83 84)
(85 86)
(89 90)
(99 0)
(1 2)
(11 12)
(15 16)
(17 18)
(19 20)
(23 24)
(25 26)
(29 30)
(37 38)
(41 42)
(43 44)
(45 46)
(47 48)
(51 52)
(61 62)
(65 66)
(67 68)
(69 70)
(73 74)
(75 76)
(79 80)
(87 88)
(91 92)
(93 94)
(95 96)
(97 98)
(6 2)
(8 2)
(8 0)
(8 98)
(10 98)
(12 98)
(14 98)
(16 98)
(18 98)
(20 98)
(22 98)
(24 98)
(26 98)
(28 98)
(30 98)
(32 98)
(34 98)
(36 98)
(38 98)
(40 98)
(42 98)
(44 98)
(46 98)
(48 98)
(50 98)
(52 98)
(52 96)
(52 94)
(54 94)
(56 94)
(56 92)
(56 90)
(56 88)
(56 86)
(56 84)
(58 84)
(60 84)
(62 84)
(64 84)
(66 84)
(66 82)
(66 80)
(66 78)
(66 76)
(66 74)
(66 72)
(66 70)
(95 99)
(93 99)
(93 1)
(93 3)
(91 3)
(89 3)
(87 3)
(85 3)
(83 3)
(81 3)
(79 3)
(77 3)
(75 3)
(73 3)
(71 3)
(69 3)
(67 3)
(65 3)
(63 3)
(61 3)
(59 3)
(57 3)
(55 3)
(53 3)
(51 3)
(49 3)
(49 5)
(49 7)
(47 7)
(45 7)
(45 9)
(45 11)
(45 13)
(45 15)
(45 17)
(43 17)
(41 17)
(39 17)
(37 17)
(35 17)
(35 19)
(35 21)
(35 23)
(35 25)
(35 27)
(35 29)
(35 31)
)

// concaveStart mixedStart nonFeatureStart
0 0 100
// internalStart flatStart openStart multipleStart
150 150 294 294
// normals

196
(
(0.998026 0 -0.062808)
(0.998026 -0 0.062808)
(0 1 -0)
(0.998026 0 -0.062808)
(0.982288 0 -0.187379)
(-0 -1 0)
(0.982288 0 -0.187379)
(0 1 -0)
(0.951057 0 -0.309015)
(-0 -1 0)
(0.951057 0 -0.309015)
(0.904831 0 -0.425772)
(-0 -1 0)
(0.904831 0 -0.425772)
(0 1 -0)
(0.844335 0 -0.535816)
(-0 -1 0)
(0.844335 0 -0.535816)
(0 1 -0)
(0.770517 0 -0.637419)
(-0 -1 0)
(0 1 -0)
(0.770517 0 -0.637419)
(0.684535 0 -0.72898)
(-0 -1 0)
(0.684535 0 -0.72898)
(0 1 -0)
(0.58777 0 -0.809028)
(-0 -1 0)
(0 1 -0)
(0.58777 0 -0.809028)
(0.481759 0 -0.876304)
(-0 -1 0)
(0 1 -0)
(0.481759 0 -0.876304)
(0.368136 0 -0.929772)
(-0 -1 0)
(0 1 -0)
(0.368136 0 -0.929772)
(0.248694 0 -0.968582)
(-0 -1 0)
(0.248694 0 -0.968582)
(0 1 -0)
(0.125318 0 -0.992117)
(-0 -1 0)
(0 1 -0)
(0.125318 0 -0.992117)
(-0 -0 -1)
(-0 -1 0)
(0 1 -0)
(0 0 -1)
(-0.125318 -0 -0.992117)
(0 -1 0)
(-0.125318 0 -0.992117)
(0 1 -0)
(-0.248694 -0 -0.968582)
(0 -1 0)
(0 1 -0)
(-0.248694 0 -0.968582)
(-0.368136 -0 -0.929772)
(0 -1 0)
(-0.368136 0 -0.929772)
(0 1 -0)
(-0.481759 -0 -0.876304)
(0 -1 0)
(-0.481759 0 -0.876304)
(0 1 -0)
(-0.58777 -0 -0.809028)
(-0.58777 0 -0.809028)
(0 1 -0)
(-0.684535 -0 -0.72898)
(0 -1 0)
(0 1 -0)
(-0.684535 0 -0.72898)
(-0.770517 -0 -0.637419)
(0 -1 0)
(-0.770517 0 -0.637419)
(0 1 -0)
(-0.844335 -0 -0.535816)
(0 -1 0)
(0 1 -0)
(-0.844335 0 -0.535816)
(-0.904831 -0 -0.425772)
(0 -1 0)
(0 1 -0)
(-0.904831 0 -0.425772)
(-0.951057 -0 -0.309015)
(0 -1 0)
(0 1 -0)
(-0.951057 0 -0.309015)
(-0.982288 -0 -0.187379)
(0 -1 0)
(0 1 -0)
(-0.982288 0 -0.187379)
(-0.998026 -0 -0.062808)
(0 -1 0)
(-0.998026 0 -0.062808)
(0 1 -0)
(-0.998026 0 0.062808)
(0 -1 0)
(0 1 0)
(-0.998026 0 0.062808)
(-0.982288 0 0.187379)
(0 -1 -0)
(-0.982288 0 0.187379)
(0 1 0)
(-0.951057 0 0.309015)
(0 -1 -0)
(-0.951057 0 0.309015)
(0 1 0)
(-0.904831 0 0.425772)
(0 -1 -0)
(-0.904831 0 0.425772)
(0 1 0)
(-0.844335 0 0.535816)
(0 -1 -0)
(-0.844335 0 0.535816)
(0 1 0)
(-0.770517 0 0.637419)
(0 -1 -0)
(0 1 0)
(-0.770517 0 0.637419)
(-0.684535 0 0.72898)
(0 -1 -0)
(-0.684535 0 0.72898)
(0 1 0)
(-0.58777 0 0.809028)
(0 -1 -0)
(0 1 0)
(-0.58777 0 0.809028)
(-0.481759 0 0.876304)
(0 -1 -0)
(-0 1 0)
(-0.481759 0 0.876304)
(-0.368136 0 0.929772)
(0 -1 -0)
(-0.368136 0 0.929772)
(-0.248694 0 0.968582)
(0 -1 -0)
(-0.248694 0 0.968582)
(0 1 0)
(-0.125318 0 0.992117)
(0 -1 -0)
(0 1 0)
(-0.125318 0 0.992117)
(-0 0 1)
(0 -1 -0)
(0 1 0)
(0 -0 1)
(0.125318 0 0.992117)
(-0 -1 -0)
(0.125318 -0 0.992117)
(0 1 0)
(0.248694 0 0.968582)
(-0 -1 -0)
(0 1 0)
(0.248694 -0 0.968582)
(0.368136 0 0.929772)
(-0 -1 -0)
(0.368136 -0 0.929772)
(0 1 0)
(0.481759 0 0.876304)
(-0 -1 -0)
(0.481759 -0 0.876304)
(0 1 0)
(0.58777 0 0.809028)
(-0 -1 -0)
(0.58777 -0 0.809028)
(0 1 0)
(0.684535 0 0.72898)
(-0 -1 -0)
(0 1 0)
(0.684535 -0 0.72898)
(0.770517 0 0.637419)
(-0 -1 -0)
(0.770517 -0 0.637419)
(0 1 0)
(0.844335 0 0.535816)
(-0 -1 -0)
(0 1 0)
(0.844335 -0 0.535816)
(0.904831 0 0.425772)
(-0 -1 -0)
(0 1 0)
(0.904831 -0 0.425772)
(0.951057 0 0.309015)
(-0 -1 -0)
(0 1 0)
(0.951057 -0 0.309015)
(0.982288 0 0.187379)
(-0 -1 -0)
(0 1 0)
(0.982288 -0 0.187379)
(0.998026 0 0.062808)
(0 1 0)
(-0 -1 -0)
)

// normal volume types

196
(
0
0
0
0
0
0
0
0
0
0
0
0
0
0
0
0
0
0
0
0
0
0
0
0
0
0
0
0
0
0
0
0
0
0
0
0
0
0
0
0
0
0
0
0
0
0
0
0
0
0
0
0
0
0
0
0
0
0
0
0
0
0
0
0
0
0
0
0
0
0
0
0
0
0
0
0
0
0
0
0
0
0
0
0
0
0
0
0
0
0
0
0
0
0
0
0
0
0
0
0
0
0
0
0
0
0
0
0
0
0
0
0
0
0
0
0
0
0
0
0
0
0
0
0
0
0
0
0
0
0
0
0
0
0
0
0
0
0
0
0
0
0
0
0
0
0
0
0
0
0
0
0
0
0
0
0
0
0
0
0
0
0
0
0
0
0
0
0
0
0
0
0
0
0
0
0
0
0
0
0
0
0
0
0
0
0
0
0
0
0
0
0
0
0
0
0
)

// normalDirections

294
(
2(1 -1)
2(1 -1)
2(1 -1)
2(1 -1)
2(1 -1)
2(1 -1)
2(1 -1)
2(1 -1)
2(1 -1)
2(1 -1)
2(1 -1)
2(1 -1)
2(1 -1)
2(1 -1)
2(1 -1)
2(1 -1)
2(1 -1)
2(1 -1)
2(1 -1)
2(1 -1)
2(1 -1)
2(1 -1)
2(1 -1)
2(1 -1)
2(1 -1)
2(1 -1)
2(1 -1)
2(1 -1)
2(1 -1)
2(1 -1)
2(1 -1)
2(1 -1)
2(1 -1)
2(1 -1)
2(1 -1)
2(1 -1)
2(1 -1)
2(1 -1)
2(1 -1)
2(1 -1)
2(1 -1)
2(1 -1)
2(1 -1)
2(1 -1)
2(1 -1)
2(1 -1)
2(1 -1)
2(1 -1)
2(1 -1)
2(1 -1)
2(1 -1)
2(1 -1)
2(1 -1)
2(1 -1)
2(1 -1)
2(1 -1)
2(1 -1)
2(1 -1)
2(1 -1)
2(1 -1)
2(1 -1)
2(1 -1)
2(1 -1)
2(1 -1)
2(1 -1)
2(1 -1)
2(1 -1)
2(1 -1)
2(1 -1)
2(1 -1)
2(1 -1)
2(1 -1)
2(1 -1)
2(1 -1)
2(1 -1)
2(1 -1)
2(1 -1)
2(1 -1)
2(1 -1)
2(1 -1)
2(1 -1)
2(1 -1)
2(1 -1)
2(1 -1)
2(1 -1)
2(1 -1)
2(1 -1)
2(1 -1)
2(1 -1)
2(1 -1)
2(1 -1)
2(1 -1)
2(1 -1)
2(1 -1)
2(1 -1)
2(1 -1)
2(1 -1)
2(1 -1)
2(1 -1)
2(1 -1)
2(1 -1)
2(1 -1)
2(1 -1)
2(1 -1)
2(1 -1)
2(1 -1)
2(1 -1)
2(1 -1)
2(1 -1)
2(1 -1)
2(1 -1)
2(1 -1)
2(1 -1)
2(1 -1)
2(1 -1)
2(1 -1)
2(1 -1)
2(1 -1)
2(1 -1)
2(1 -1)
2(1 -1)
2(1 -1)
2(1 -1)
2(1 -1)
2(1 -1)
2(1 -1)
2(1 -1)
2(1 -1)
2(1 -1)
2(1 -1)
2(1 -1)
2(1 -1)
2(1 -1)
2(1 -1)
2(1 -1)
2(1 -1)
2(1 -1)
2(1 -1)
2(1 -1)
2(1 -1)
2(1 -1)
2(1 -1)
2(1 -1)
2(1 -1)
2(1 -1)
2(1 -1)
2(1 -1)
2(1 -1)
2(1 -1)
2(1 -1)
2(1 -1)
2(1 -1)
2(1 -1)
2(1 -1)
2(1 -1)
2(1 -1)
2(1 -1)
2(1 -1)
2(1 -1)
2(1 -1)
2(1 -1)
2(1 -1)
2(1 -1)
2(1 -1)
2(1 -1)
2(1 -1)
2(1 -1)
2(1 -1)
2(1 -1)
2(1 -1)
2(1 -1)
2(1 -1)
2(1 -1)
2(1 -1)
2(1 -1)
2(1 -1)
2(1 -1)
2(1 -1)
2(1 -1)
2(1 -1)
2(1 -1)
2(1 -1)
2(1 -1)
2(1 -1)
2(1 -1)
2(1 -1)
2(1 -1)
2(1 -1)
2(1 -1)
2(1 -1)
2(1 -1)
2(1 -1)
2(1 -1)
2(1 -1)
2(1 -1)
2(1 -1)
2(1 -1)
2(1 -1)
2(1 -1)
2(1 -1)
2(1 -1)
2(1 -1)
2(1 -1)
2(1 -1)
2(1 -1)
2(1 -1)
2(1 -1)
2(1 -1)
2(1 -1)
2(1 -1)
2(1 -1)
2(1 -1)
2(1 -1)
2(1 -1)
2(1 -1)
2(1 -1)
2(1 -1)
2(1 -1)
2(1 -1)
2(1 -1)
2(1 -1)
2(1 -1)
2(1 -1)
2(1 -1)
2(1 -1)
2(1 -1)
2(1 -1)
2(1 -1)
2(1 -1)
2(1 -1)
2(1 -1)
2(1 -1)
2(1 -1)
2(1 -1)
2(1 -1)
2(1 -1)
2(1 -1)
2(1 -1)
2(1 -1)
2(1 -1)
2(1 -1)
2(1 -1)
2(1 -1)
2(1 -1)
2(1 -1)
2(1 -1)
2(1 -1)
2(1 -1)
2(1 -1)
2(1 -1)
2(1 -1)
2(1 -1)
2(1 -1)
2(1 -1)
2(1 -1)
2(1 -1)
2(1 -1)
2(1 -1)
2(1 -1)
2(1 -1)
2(1 -1)
2(1 -1)
2(1 -1)
2(1 -1)
2(1 -1)
2(1 -1)
2(1 -1)
2(1 -1)
2(1 -1)
2(1 -1)
2(1 -1)
2(1 -1)
2(1 -1)
2(1 -1)
2(1 -1)
2(1 -1)
2(1 -1)
2(1 -1)
2(1 -1)
2(1 -1)
2(1 -1)
2(1 -1)
2(1 -1)
2(1 -1)
2(1 -1)
2(1 -1)
2(1 -1)
2(1 -1)
2(1 -1)
2(1 -1)
2(1 -1)
2(1 -1)
2(1 -1)
2(1 -1)
)

// edgeNormals

294
(
2(0 1)
2(0 2)
2(3 4)
2(3 5)
2(4 7)
2(6 8)
2(6 9)
2(8 7)
2(10 11)
2(10 12)
2(11 14)
2(13 15)
2(13 16)
2(15 18)
2(17 19)
2(17 20)
2(19 21)
2(22 23)
2(22 24)
2(23 26)
2(25 27)
2(25 28)
2(27 29)
2(30 31)
2(30 32)
2(31 33)
2(34 35)
2(34 36)
2(35 37)
2(38 39)
2(38 40)
2(39 42)
2(41 43)
2(41 44)
2(43 45)
2(46 47)
2(46 48)
2(47 49)
2(50 51)
2(50 52)
2(51 54)
2(53 55)
2(53 56)
2(55 57)
2(58 59)
2(58 60)
2(59 62)
2(61 63)
2(61 64)
2(63 66)
2(65 67)
2(65 64)
2(67 69)
2(68 70)
2(68 71)
2(70 72)
2(73 74)
2(73 75)
2(74 77)
2(76 78)
2(76 79)
2(78 80)
2(81 82)
2(81 83)
2(82 84)
2(85 86)
2(85 87)
2(86 88)
2(89 90)
2(89 91)
2(90 92)
2(93 94)
2(93 95)
2(94 97)
2(96 98)
2(96 99)
2(98 100)
2(101 102)
2(101 103)
2(102 105)
2(104 106)
2(104 107)
2(106 109)
2(108 110)
2(108 111)
2(110 113)
2(112 114)
2(112 115)
2(114 117)
2(116 118)
2(116 119)
2(118 120)
2(121 122)
2(121 123)
2(122 125)
2(124 126)
2(124 127)
2(126 128)
2(129 130)
2(129 131)
2(130 132)
2(133 134)
2(133 135)
2(134 132)
2(136 137)
2(136 138)
2(137 140)
2(139 141)
2(139 142)
2(141 143)
2(144 145)
2(144 146)
2(145 147)
2(148 149)
2(148 150)
2(149 152)
2(151 153)
2(151 154)
2(153 155)
2(156 157)
2(156 158)
2(157 160)
2(159 161)
2(159 162)
2(161 164)
2(163 165)
2(163 166)
2(165 168)
2(167 169)
2(167 170)
2(169 171)
2(172 173)
2(172 174)
2(173 176)
2(175 177)
2(175 178)
2(177 179)
2(180 181)
2(180 182)
2(181 183)
2(184 185)
2(184 186)
2(185 187)
2(188 189)
2(188 190)
2(189 191)
2(192 193)
2(192 190)
2(193 194)
2(1 195)
2(4 6)
2(8 10)
2(11 13)
2(15 17)
2(23 25)
2(39 41)
2(51 53)
2(59 61)
2(63 65)
2(67 68)
2(74 76)
2(94 96)
2(102 104)
2(106 108)
2(110 112)
2(114 116)
2(122 124)
2(137 139)
2(149 151)
2(157 159)
2(161 163)
2(165 167)
2(173 175)
2(193 1)
2(0 3)
2(19 22)
2(27 30)
2(31 34)
2(35 38)
2(43 46)
2(47 50)
2(55 58)
2(70 73)
2(78 81)
2(82 85)
2(86 89)
2(90 93)
2(98 101)
2(118 121)
2(126 129)
2(130 133)
2(134 136)
2(141 144)
2(145 148)
2(153 156)
2(169 172)
2(177 180)
2(181 184)
2(185 188)
2(189 192)
2(7 14)
2(14 2)
2(2 194)
2(194 18)
2(18 21)
2(21 26)
2(26 29)
2(29 33)
2(33 37)
2(37 42)
2(42 45)
2(45 49)
2(49 54)
2(54 57)
2(57 62)
2(62 66)
2(66 69)
2(69 72)
2(72 77)
2(77 80)
2(80 84)
2(84 88)
2(88 92)
2(92 97)
2(97 100)
2(100 191)
2(191 187)
2(187 105)
2(105 109)
2(109 183)
2(183 179)
2(179 176)
2(176 171)
2(171 168)
2(168 113)
2(113 117)
2(117 120)
2(120 125)
2(125 128)
2(128 164)
2(164 160)
2(160 155)
2(155 152)
2(152 147)
2(147 143)
2(143 140)
2(140 132)
2(190 186)
2(186 195)
2(195 5)
2(5 182)
2(182 178)
2(178 174)
2(174 170)
2(170 166)
2(166 162)
2(162 158)
2(158 154)
2(154 150)
2(150 146)
2(146 142)
2(142 138)
2(138 135)
2(135 131)
2(131 127)
2(127 123)
2(123 119)
2(119 115)
2(115 111)
2(111 107)
2(107 103)
2(103 99)
2(99 9)
2(9 12)
2(12 95)
2(95 91)
2(91 16)
2(16 20)
2(20 24)
2(24 28)
2(28 32)
2(32 87)
2(87 83)
2(83 79)
2(79 75)
2(75 71)
2(71 36)
2(36 40)
2(40 44)
2(44 48)
2(48 52)
2(52 56)
2(56 60)
2(60 64)
)

// featurePointNormals

100
(
3(0 1 2)
3(0 1 5)
3(0 2 4)
3(3 4 5)
3(4 7 8)
3(6 8 9)
3(8 7 11)
3(10 11 12)
3(11 14 15)
3(13 15 16)
3(15 18 19)
3(17 19 20)
3(19 21 23)
3(22 23 24)
3(23 26 27)
3(25 27 28)
3(27 29 31)
3(30 31 32)
3(31 33 35)
3(34 35 36)
3(35 37 39)
3(38 39 40)
3(39 42 43)
3(41 43 44)
3(43 45 47)
3(46 47 48)
3(47 49 51)
3(50 51 52)
3(51 54 55)
3(53 55 56)
3(55 57 59)
3(58 59 60)
3(59 62 63)
3(61 63 64)
3(63 66 67)
3(65 67 64)
3(67 69 70)
3(68 70 71)
3(70 72 74)
3(73 74 75)
3(74 77 78)
3(76 78 79)
3(78 80 82)
3(81 82 83)
3(82 84 86)
3(85 86 87)
3(86 88 90)
3(89 90 91)
3(90 92 94)
3(93 94 95)
3(94 97 98)
3(96 98 99)
3(98 100 102)
3(101 102 103)
3(102 105 106)
3(104 106 107)
3(106 109 110)
3(108 110 111)
3(110 113 114)
3(112 114 115)
3(114 117 118)
3(116 118 119)
3(118 120 122)
3(121 122 123)
3(122 125 126)
3(124 126 127)
3(126 128 130)
3(129 130 131)
3(130 132 134)
3(133 134 135)
3(134 132 137)
3(136 137 138)
3(137 140 141)
3(139 141 142)
3(141 143 145)
3(144 145 146)
3(145 147 149)
3(148 149 150)
3(149 152 153)
3(151 153 154)
3(153 155 157)
3(156 157 158)
3(157 160 161)
3(159 161 162)
3(161 164 165)
3(163 165 166)
3(165 168 169)
3(167 169 170)
3(169 171 173)
3(172 173 174)
3(173 176 177)
3(175 177 178)
3(177 179 181)
3(180 181 182)
3(181 183 185)
3(184 185 186)
3(185 187 189)
3(188 189 190)
3(189 191 193)
3(192 193 190)
)

// featurePointEdges

100
(
5(0 173 148 202 1)
5(174 3 249 149 0)
6(174 2 4 200 201 1)

27
(
2
150
6
272
271
270
269
268
267
266
265
264
263
262
261
260
259
258
257
256
255
254
253
252
251
250
3
)

4(150 5 7 4)
5(5 151 9 273 6)
5(151 8 10 200 7)
7(8 152 12 276 275 274 9)
7(152 11 13 203 202 201 10)
5(11 153 15 277 12)
5(153 14 16 204 13)
5(14 175 18 278 15)
5(175 17 19 205 16)
5(17 154 21 279 18)
5(154 20 22 206 19)
5(20 176 24 280 21)
5(176 23 25 207 22)
10(23 177 27 286 285 284 283 282 281 24)
5(177 26 28 208 25)
5(26 178 30 287 27)
5(178 29 31 209 28)
5(29 155 33 288 30)
5(155 32 34 210 31)
5(32 179 36 289 33)
5(179 35 37 211 34)
5(35 180 39 290 36)
5(180 38 40 212 37)
5(38 156 42 291 39)
5(156 41 43 213 40)
5(41 181 45 292 42)
5(181 44 46 214 43)
5(44 157 48 293 45)
5(157 47 49 215 46)
4(47 158 51 48)
5(158 50 52 216 49)

12
(
50
159
54
286
287
288
289
290
291
292
293
51
)

5(159 53 55 217 52)
5(53 182 57 285 54)
5(182 56 58 218 55)
5(56 160 60 284 57)
5(160 59 61 219 58)
5(59 183 63 283 60)
5(183 62 64 220 61)
5(62 184 66 282 63)
5(184 65 67 221 64)
10(65 185 69 276 277 278 279 280 281 66)
5(185 68 70 222 67)
5(68 186 72 275 69)
5(186 71 73 223 70)
7(71 161 75 272 273 274 72)
5(161 74 76 224 73)
5(74 187 78 271 75)
7(187 77 79 227 226 225 76)
5(77 162 81 270 78)
5(162 80 82 228 79)
5(80 163 84 269 81)
10(163 83 85 234 233 232 231 230 229 82)
5(83 164 87 268 84)
5(164 86 88 235 85)
5(86 165 90 267 87)
5(165 89 91 236 88)
5(89 188 93 266 90)
5(188 92 94 237 91)
5(92 166 96 265 93)
5(166 95 97 238 94)
5(95 189 99 264 96)

12
(
189
98
100
246
245
244
243
242
241
240
239
97
)

5(98 190 102 263 99)
4(190 101 103 100)
5(101 191 105 262 102)
5(191 104 106 246 103)
5(104 167 108 261 105)
5(167 107 109 245 106)
5(107 192 111 260 108)
5(192 110 112 244 109)
5(110 193 114 259 111)
5(193 113 115 243 112)
5(113 168 117 258 114)
5(168 116 118 242 115)
5(116 194 120 257 117)
5(194 119 121 241 118)
5(119 169 123 256 120)
5(169 122 124 240 121)
5(122 170 126 255 123)
10(170 125 127 234 235 236 237 238 239 124)
5(125 171 129 254 126)
5(171 128 130 233 127)
5(128 195 132 253 129)
5(195 131 133 232 130)
5(131 172 135 252 132)
5(172 134 136 231 133)
5(134 196 138 251 135)
5(196 137 139 230 136)
7(137 197 141 248 249 250 138)
7(197 140 142 227 228 229 139)
5(140 198 144 247 141)
5(198 143 145 226 142)
4(143 199 147 144)

27
(
199
146
148
203
204
205
206
207
208
209
210
211
212
213
214
215
216
217
218
219
220
221
222
223
224
225
145
)

6(146 173 149 248 247 147)
)

// regionEdges
0()


// ************************************************************************* //
