/*--------------------------------*- C++ -*----------------------------------*\
| =========                 |                                                 |
| \\      /  F ield         | OpenFOAM: The Open Source CFD Toolbox           |
|  \\    /   O peration     | Version:  2206                                  |
|   \\  /    A nd           | Website:  www.openfoam.com                      |
|    \\/     M anipulation  |                                                 |
\*---------------------------------------------------------------------------*/
FoamFile
{
    version     2.0;
    format      ascii;
    arch        "LSB;label=32;scalar=64";
    class       extendedFeatureEdgeMesh;
    location    "constant/extendedFeatureEdgeMesh";
    object      outerCylinder.extendedFeatureEdgeMesh;
}
// * * * * * * * * * * * * * * * * * * * * * * * * * * * * * * * * * * * * * //

// points

100
(
(0.3 0.2 0)
(0.3 -0.8 0)
(0.297634 0.2 -0.0376)
(0.297634 -0.8 -0.0376)
(0.290575 0.2 -0.074607)
(0.290575 -0.8 -0.074607)
(0.278933 0.2 -0.110437)
(0.278933 -0.8 -0.110437)
(0.262892 0.2 -0.144526)
(0.262892 -0.8 -0.144526)
(0.242705 0.2 -0.176336)
(0.242705 -0.8 -0.176336)
(0.218691 0.2 -0.205364)
(0.218691 -0.8 -0.205364)
(0.191227 0.2 -0.231154)
(0.191227 -0.8 -0.231154)
(0.160748 0.2 -0.253298)
(0.160748 -0.8 -0.253298)
(0.127734 0.2 -0.271448)
(0.127734 -0.8 -0.271448)
(0.0927051 0.2 -0.285317)
(0.0927051 -0.8 -0.285317)
(0.0562144 0.2 -0.294686)
(0.0562144 -0.8 -0.294686)
(0.0188372 0.2 -0.299408)
(0.0188372 -0.8 -0.299408)
(-0.0188372 0.2 -0.299408)
(-0.0188372 -0.8 -0.299408)
(-0.0562144 0.2 -0.294686)
(-0.0562144 -0.8 -0.294686)
(-0.0927051 0.2 -0.285317)
(-0.0927051 -0.8 -0.285317)
(-0.127734 0.2 -0.271448)
(-0.127734 -0.8 -0.271448)
(-0.160748 0.2 -0.253298)
(-0.160748 -0.8 -0.253298)
(-0.191227 0.2 -0.231154)
(-0.191227 -0.8 -0.231154)
(-0.218691 0.2 -0.205364)
(-0.218691 -0.8 -0.205364)
(-0.242705 0.2 -0.176336)
(-0.242705 -0.8 -0.176336)
(-0.262892 0.2 -0.144526)
(-0.262892 -0.8 -0.144526)
(-0.278933 0.2 -0.110437)
(-0.278933 -0.8 -0.110437)
(-0.290575 0.2 -0.074607)
(-0.290575 -0.8 -0.074607)
(-0.297634 0.2 -0.0376)
(-0.297634 -0.8 -0.0376)
(-0.3 0.2 1.23062e-10)
(-0.3 -0.8 1.23062e-10)
(-0.297634 0.2 0.0376)
(-0.297634 -0.8 0.0376)
(-0.290575 0.2 0.074607)
(-0.290575 -0.8 0.074607)
(-0.278933 0.2 0.110437)
(-0.278933 -0.8 0.110437)
(-0.262892 0.2 0.144526)
(-0.262892 -0.8 0.144526)
(-0.242705 0.2 0.176336)
(-0.242705 -0.8 0.176336)
(-0.218691 0.2 0.205364)
(-0.218691 -0.8 0.205364)
(-0.191227 0.2 0.231154)
(-0.191227 -0.8 0.231154)
(-0.160748 0.2 0.253298)
(-0.160748 -0.8 0.253298)
(-0.127734 0.2 0.271448)
(-0.127734 -0.8 0.271448)
(-0.0927051 0.2 0.285317)
(-0.0927051 -0.8 0.285317)
(-0.0562144 0.2 0.294686)
(-0.0562144 -0.8 0.294686)
(-0.0188372 0.2 0.299408)
(-0.0188372 -0.8 0.299408)
(0.0188372 0.2 0.299408)
(0.0188372 -0.8 0.299408)
(0.0562144 0.2 0.294686)
(0.0562144 -0.8 0.294686)
(0.0927051 0.2 0.285317)
(0.0927051 -0.8 0.285317)
(0.127734 0.2 0.271448)
(0.127734 -0.8 0.271448)
(0.160748 0.2 0.253298)
(0.160748 -0.8 0.253298)
(0.191227 0.2 0.231154)
(0.191227 -0.8 0.231154)
(0.218691 0.2 0.205364)
(0.218691 -0.8 0.205364)
(0.242705 0.2 0.176336)
(0.242705 -0.8 0.176336)
(0.262892 0.2 0.144526)
(0.262892 -0.8 0.144526)
(0.278933 0.2 0.110437)
(0.278933 -0.8 0.110437)
(0.290575 0.2 0.074607)
(0.290575 -0.8 0.074607)
(0.297634 0.2 0.0376)
(0.297634 -0.8 0.0376)
)

// edges

294
(
(0 1)
(2 0)
(3 2)
(1 3)
(4 2)
(5 4)
(3 5)
(6 4)
(7 6)
(5 7)
(8 6)
(9 8)
(7 9)
(10 8)
(11 10)
(9 11)
(12 10)
(13 12)
(11 13)
(14 12)
(15 14)
(13 15)
(16 14)
(17 16)
(15 17)
(18 16)
(19 18)
(17 19)
(20 18)
(21 20)
(19 21)
(22 20)
(23 22)
(21 23)
(24 22)
(25 24)
(23 25)
(26 24)
(27 26)
(25 27)
(28 26)
(29 28)
(27 29)
(30 28)
(31 30)
(29 31)
(32 30)
(33 32)
(31 33)
(34 32)
(35 34)
(33 35)
(36 34)
(37 36)
(35 37)
(38 36)
(39 38)
(37 39)
(40 38)
(41 40)
(39 41)
(42 40)
(43 42)
(41 43)
(44 42)
(45 44)
(43 45)
(46 44)
(47 46)
(45 47)
(48 46)
(49 48)
(47 49)
(50 48)
(51 50)
(49 51)
(52 50)
(53 52)
(51 53)
(54 52)
(55 54)
(53 55)
(56 54)
(57 56)
(55 57)
(58 56)
(59 58)
(57 59)
(60 58)
(61 60)
(59 61)
(62 60)
(63 62)
(61 63)
(64 62)
(65 64)
(63 65)
(66 64)
(67 66)
(65 67)
(68 66)
(69 68)
(67 69)
(70 68)
(71 70)
(69 71)
(72 70)
(73 72)
(71 73)
(74 72)
(75 74)
(73 75)
(76 74)
(77 76)
(75 77)
(78 76)
(79 78)
(77 79)
(80 78)
(81 80)
(79 81)
(82 80)
(83 82)
(81 83)
(84 82)
(85 84)
(83 85)
(86 84)
(87 86)
(85 87)
(88 86)
(89 88)
(87 89)
(90 88)
(91 90)
(89 91)
(92 90)
(93 92)
(91 93)
(94 92)
(95 94)
(93 95)
(96 94)
(97 96)
(95 97)
(98 96)
(99 98)
(97 99)
(0 98)
(99 1)
(1 2)
(3 4)
(5 6)
(17 18)
(19 20)
(27 28)
(29 30)
(35 36)
(37 38)
(39 40)
(41 42)
(51 52)
(53 54)
(55 56)
(67 68)
(69 70)
(77 78)
(79 80)
(85 86)
(87 88)
(89 90)
(91 92)
(7 8)
(9 10)
(11 12)
(13 14)
(15 16)
(21 22)
(23 24)
(25 26)
(31 32)
(33 34)
(43 44)
(45 46)
(47 48)
(49 50)
(57 58)
(59 60)
(61 62)
(63 64)
(65 66)
(71 72)
(73 74)
(75 76)
(81 82)
(83 84)
(93 94)
(95 96)
(97 98)
(99 0)
(8 4)
(10 4)
(12 4)
(14 4)
(16 4)
(18 4)
(20 4)
(22 4)
(24 4)
(26 4)
(28 4)
(30 4)
(32 4)
(34 4)
(36 4)
(38 4)
(40 4)
(42 4)
(44 4)
(46 4)
(46 2)
(46 0)
(46 98)
(46 96)
(48 96)
(50 96)
(52 96)
(54 96)
(54 94)
(54 92)
(56 92)
(58 92)
(58 90)
(58 88)
(58 86)
(60 86)
(62 86)
(64 86)
(64 84)
(64 82)
(64 80)
(64 78)
(64 76)
(64 74)
(64 72)
(64 70)
(64 68)
(93 97)
(91 97)
(89 97)
(87 97)
(85 97)
(83 97)
(81 97)
(79 97)
(77 97)
(75 97)
(73 97)
(71 97)
(69 97)
(67 97)
(65 97)
(63 97)
(61 97)
(59 97)
(57 97)
(55 97)
(53 97)
(51 97)
(49 97)
(47 97)
(47 99)
(47 1)
(47 3)
(45 3)
(43 3)
(43 5)
(43 7)
(43 9)
(43 11)
(43 13)
(43 15)
(41 15)
(39 15)
(37 15)
(37 17)
(37 19)
(37 21)
(37 23)
(37 25)
(37 27)
(37 29)
(37 31)
(37 33)
)

// concaveStart mixedStart nonFeatureStart
0 0 100
// internalStart flatStart openStart multipleStart
150 150 294 294
// normals

196
(
(0.998026 0 -0.0628013)
(0.998026 0 -0.0628013)
(0.998026 -0 0.0628013)
(0 1 -0)
(0.98229 0 -0.187369)
(0 -1 0)
(0.98229 0 -0.187369)
(0 1 -0)
(0.951056 0 -0.30902)
(0 -1 0)
(0.951056 0 -0.30902)
(0 1 -0)
(0.904828 0 -0.425778)
(0 -1 0)
(0.904828 0 -0.425778)
(0.844331 0 -0.535822)
(0 -1 0)
(0 1 -0)
(0.844331 0 -0.535822)
(0.770514 0 -0.637423)
(-0 -1 0)
(0 1 -0)
(0.770514 0 -0.637423)
(0.684541 0 -0.728974)
(-0 -1 0)
(0 1 -0)
(0.684541 0 -0.728974)
(0.58778 0 -0.809021)
(-0 -1 0)
(0 1 -0)
(0.58778 0 -0.809021)
(0.481762 0 -0.876302)
(-0 -1 0)
(0.481762 0 -0.876302)
(0 1 -0)
(0.368126 0 -0.929776)
(-0 -1 0)
(0.368126 0 -0.929776)
(0 1 -0)
(0.248684 0 -0.968585)
(-0 -1 0)
(0 1 -0)
(0.248684 0 -0.968585)
(0.125337 0 -0.992114)
(-0 -1 0)
(0 1 -0)
(0.125337 0 -0.992114)
(-0 -0 -1)
(-0 -1 0)
(0 1 -0)
(0 0 -1)
(-0.125337 -0 -0.992114)
(0 -1 0)
(-0.125337 0 -0.992114)
(0 1 -0)
(-0.248684 -0 -0.968585)
(0 -1 0)
(-0.248684 0 -0.968585)
(0 1 -0)
(-0.368126 -0 -0.929776)
(0 -1 0)
(0 1 -0)
(-0.368126 0 -0.929776)
(-0.481762 -0 -0.876302)
(0 -1 0)
(0 1 -0)
(-0.481762 0 -0.876302)
(-0.58778 -0 -0.809021)
(0 -1 0)
(-0.58778 -0 -0.809021)
(0 1 -0)
(-0.684541 -0 -0.728974)
(-0.684541 0 -0.728974)
(0 1 -0)
(-0.770514 -0 -0.637423)
(0 -1 0)
(-0.770514 0 -0.637423)
(0 1 -0)
(-0.844331 -0 -0.535822)
(0 -1 0)
(-0.844331 0 -0.535822)
(0 1 -0)
(-0.904828 -0 -0.425778)
(0 -1 0)
(0 1 -0)
(-0.904828 -0 -0.425778)
(-0.951056 -0 -0.30902)
(0 -1 0)
(0 1 -0)
(-0.951056 0 -0.30902)
(-0.98229 -0 -0.187369)
(0 -1 0)
(0 1 -0)
(-0.98229 0 -0.187369)
(-0.998026 -0 -0.0628013)
(0 -1 0)
(0 1 -0)
(-0.998026 0 -0.0628013)
(-0.998026 0 0.0628013)
(0 -1 0)
(-0.998026 0 0.0628013)
(0 1 0)
(-0.98229 0 0.187369)
(0 -1 -0)
(-0.98229 0 0.187369)
(0 1 0)
(-0.951056 0 0.30902)
(0 -1 -0)
(-0.951056 0 0.30902)
(0 1 0)
(-0.904828 0 0.425778)
(0 -1 -0)
(0 1 0)
(-0.904828 0 0.425778)
(-0.844331 0 0.535822)
(0 -1 -0)
(0 1 0)
(-0.844331 0 0.535822)
(-0.770514 0 0.637423)
(0 -1 -0)
(0 1 0)
(-0.770514 0 0.637423)
(-0.684541 0 0.728974)
(0 -1 -0)
(0 1 0)
(-0.684541 0 0.728974)
(-0.58778 0 0.809021)
(0 -1 -0)
(-0 1 0)
(-0.58778 0 0.809021)
(-0.481762 0 0.876302)
(0 -1 -0)
(-0.481762 0 0.876302)
(-0.368126 0 0.929776)
(0 -1 -0)
(-0.368126 0 0.929776)
(0 1 0)
(-0.248684 0 0.968585)
(0 -1 -0)
(0 1 0)
(-0.248684 0 0.968585)
(-0.125337 0 0.992114)
(0 -1 -0)
(0 1 0)
(-0.125337 0 0.992114)
(-0 0 1)
(0 -1 -0)
(0 1 0)
(0 -0 1)
(0.125337 0 0.992114)
(-0 -1 -0)
(0.125337 -0 0.992114)
(0 1 0)
(0.248684 0 0.968585)
(-0 -1 -0)
(0.248684 -0 0.968585)
(0 1 0)
(0.368126 0 0.929776)
(-0 -1 -0)
(0 1 0)
(0.368126 -0 0.929776)
(0.481762 0 0.876302)
(-0 -1 -0)
(0 1 0)
(0.481762 -0 0.876302)
(0.58778 0 0.809021)
(-0 -1 -0)
(0.58778 0 0.809021)
(0 1 0)
(0.684541 0 0.728974)
(-0 -1 -0)
(0.684541 -0 0.728974)
(0 1 0)
(0.770514 0 0.637423)
(-0 -1 -0)
(0.770514 -0 0.637423)
(0 1 0)
(0.844331 0 0.535822)
(-0 -1 -0)
(0.844331 -0 0.535822)
(0 1 0)
(0.904828 0 0.425778)
(-0 -1 -0)
(0 1 0)
(0.904828 0 0.425778)
(0.951056 0 0.30902)
(-0 -1 -0)
(0 1 0)
(0.951056 -0 0.30902)
(0.98229 0 0.187369)
(0 1 0)
(0.98229 -0 0.187369)
(0.998026 0 0.0628013)
(0 -1 -0)
(0 1 0)
(0 -1 -0)
)

// normal volume types

196
(
0
0
0
0
0
0
0
0
0
0
0
0
0
0
0
0
0
0
0
0
0
0
0
0
0
0
0
0
0
0
0
0
0
0
0
0
0
0
0
0
0
0
0
0
0
0
0
0
0
0
0
0
0
0
0
0
0
0
0
0
0
0
0
0
0
0
0
0
0
0
0
0
0
0
0
0
0
0
0
0
0
0
0
0
0
0
0
0
0
0
0
0
0
0
0
0
0
0
0
0
0
0
0
0
0
0
0
0
0
0
0
0
0
0
0
0
0
0
0
0
0
0
0
0
0
0
0
0
0
0
0
0
0
0
0
0
0
0
0
0
0
0
0
0
0
0
0
0
0
0
0
0
0
0
0
0
0
0
0
0
0
0
0
0
0
0
0
0
0
0
0
0
0
0
0
0
0
0
0
0
0
0
0
0
0
0
0
0
0
0
0
0
0
0
0
0
)

// normalDirections

294
(
2(1 -1)
2(1 -1)
2(1 -1)
2(1 -1)
2(1 -1)
2(1 -1)
2(1 -1)
2(1 -1)
2(1 -1)
2(1 -1)
2(1 -1)
2(1 -1)
2(1 -1)
2(1 -1)
2(1 -1)
2(1 -1)
2(1 -1)
2(1 -1)
2(1 -1)
2(1 -1)
2(1 -1)
2(1 -1)
2(1 -1)
2(1 -1)
2(1 -1)
2(1 -1)
2(1 -1)
2(1 -1)
2(1 -1)
2(1 -1)
2(1 -1)
2(1 -1)
2(1 -1)
2(1 -1)
2(1 -1)
2(1 -1)
2(1 -1)
2(1 -1)
2(1 -1)
2(1 -1)
2(1 -1)
2(1 -1)
2(1 -1)
2(1 -1)
2(1 -1)
2(1 -1)
2(1 -1)
2(1 -1)
2(1 -1)
2(1 -1)
2(1 -1)
2(1 -1)
2(1 -1)
2(1 -1)
2(1 -1)
2(1 -1)
2(1 -1)
2(1 -1)
2(1 -1)
2(1 -1)
2(1 -1)
2(1 -1)
2(1 -1)
2(1 -1)
2(1 -1)
2(1 -1)
2(1 -1)
2(1 -1)
2(1 -1)
2(1 -1)
2(1 -1)
2(1 -1)
2(1 -1)
2(1 -1)
2(1 -1)
2(1 -1)
2(1 -1)
2(1 -1)
2(1 -1)
2(1 -1)
2(1 -1)
2(1 -1)
2(1 -1)
2(1 -1)
2(1 -1)
2(1 -1)
2(1 -1)
2(1 -1)
2(1 -1)
2(1 -1)
2(1 -1)
2(1 -1)
2(1 -1)
2(1 -1)
2(1 -1)
2(1 -1)
2(1 -1)
2(1 -1)
2(1 -1)
2(1 -1)
2(1 -1)
2(1 -1)
2(1 -1)
2(1 -1)
2(1 -1)
2(1 -1)
2(1 -1)
2(1 -1)
2(1 -1)
2(1 -1)
2(1 -1)
2(1 -1)
2(1 -1)
2(1 -1)
2(1 -1)
2(1 -1)
2(1 -1)
2(1 -1)
2(1 -1)
2(1 -1)
2(1 -1)
2(1 -1)
2(1 -1)
2(1 -1)
2(1 -1)
2(1 -1)
2(1 -1)
2(1 -1)
2(1 -1)
2(1 -1)
2(1 -1)
2(1 -1)
2(1 -1)
2(1 -1)
2(1 -1)
2(1 -1)
2(1 -1)
2(1 -1)
2(1 -1)
2(1 -1)
2(1 -1)
2(1 -1)
2(1 -1)
2(1 -1)
2(1 -1)
2(1 -1)
2(1 -1)
2(1 -1)
2(1 -1)
2(1 -1)
2(1 -1)
2(1 -1)
2(1 -1)
2(1 -1)
2(1 -1)
2(1 -1)
2(1 -1)
2(1 -1)
2(1 -1)
2(1 -1)
2(1 -1)
2(1 -1)
2(1 -1)
2(1 -1)
2(1 -1)
2(1 -1)
2(1 -1)
2(1 -1)
2(1 -1)
2(1 -1)
2(1 -1)
2(1 -1)
2(1 -1)
2(1 -1)
2(1 -1)
2(1 -1)
2(1 -1)
2(1 -1)
2(1 -1)
2(1 -1)
2(1 -1)
2(1 -1)
2(1 -1)
2(1 -1)
2(1 -1)
2(1 -1)
2(1 -1)
2(1 -1)
2(1 -1)
2(1 -1)
2(1 -1)
2(1 -1)
2(1 -1)
2(1 -1)
2(1 -1)
2(1 -1)
2(1 -1)
2(1 -1)
2(1 -1)
2(1 -1)
2(1 -1)
2(1 -1)
2(1 -1)
2(1 -1)
2(1 -1)
2(1 -1)
2(1 -1)
2(1 -1)
2(1 -1)
2(1 -1)
2(1 -1)
2(1 -1)
2(1 -1)
2(1 -1)
2(1 -1)
2(1 -1)
2(1 -1)
2(1 -1)
2(1 -1)
2(1 -1)
2(1 -1)
2(1 -1)
2(1 -1)
2(1 -1)
2(1 -1)
2(1 -1)
2(1 -1)
2(1 -1)
2(1 -1)
2(1 -1)
2(1 -1)
2(1 -1)
2(1 -1)
2(1 -1)
2(1 -1)
2(1 -1)
2(1 -1)
2(1 -1)
2(1 -1)
2(1 -1)
2(1 -1)
2(1 -1)
2(1 -1)
2(1 -1)
2(1 -1)
2(1 -1)
2(1 -1)
2(1 -1)
2(1 -1)
2(1 -1)
2(1 -1)
2(1 -1)
2(1 -1)
2(1 -1)
2(1 -1)
2(1 -1)
2(1 -1)
2(1 -1)
2(1 -1)
2(1 -1)
2(1 -1)
2(1 -1)
2(1 -1)
2(1 -1)
2(1 -1)
2(1 -1)
2(1 -1)
2(1 -1)
2(1 -1)
2(1 -1)
2(1 -1)
2(1 -1)
2(1 -1)
2(1 -1)
2(1 -1)
2(1 -1)
2(1 -1)
2(1 -1)
2(1 -1)
2(1 -1)
2(1 -1)
2(1 -1)
2(1 -1)
2(1 -1)
2(1 -1)
2(1 -1)
2(1 -1)
2(1 -1)
2(1 -1)
2(1 -1)
2(1 -1)
2(1 -1)
2(1 -1)
2(1 -1)
)

// edgeNormals

294
(
2(0 2)
2(0 3)
2(1 4)
2(1 5)
2(4 7)
2(6 8)
2(6 9)
2(8 11)
2(10 12)
2(10 13)
2(12 11)
2(14 15)
2(14 16)
2(15 17)
2(18 19)
2(18 20)
2(19 21)
2(22 23)
2(22 24)
2(23 25)
2(26 27)
2(26 28)
2(27 29)
2(30 31)
2(30 32)
2(31 34)
2(33 35)
2(33 36)
2(35 38)
2(37 39)
2(37 40)
2(39 41)
2(42 43)
2(42 44)
2(43 45)
2(46 47)
2(46 48)
2(47 49)
2(50 51)
2(50 52)
2(51 54)
2(53 55)
2(53 56)
2(55 58)
2(57 59)
2(57 60)
2(59 61)
2(62 63)
2(62 64)
2(63 65)
2(66 67)
2(66 68)
2(67 70)
2(69 71)
2(69 68)
2(71 73)
2(72 74)
2(72 75)
2(74 77)
2(76 78)
2(76 79)
2(78 81)
2(80 82)
2(80 83)
2(82 84)
2(85 86)
2(85 87)
2(86 88)
2(89 90)
2(89 91)
2(90 92)
2(93 94)
2(93 95)
2(94 96)
2(97 98)
2(97 99)
2(98 101)
2(100 102)
2(100 103)
2(102 105)
2(104 106)
2(104 107)
2(106 109)
2(108 110)
2(108 111)
2(110 112)
2(113 114)
2(113 115)
2(114 116)
2(117 118)
2(117 119)
2(118 120)
2(121 122)
2(121 123)
2(122 124)
2(125 126)
2(125 127)
2(126 128)
2(129 130)
2(129 131)
2(130 128)
2(132 133)
2(132 134)
2(133 136)
2(135 137)
2(135 138)
2(137 139)
2(140 141)
2(140 142)
2(141 143)
2(144 145)
2(144 146)
2(145 147)
2(148 149)
2(148 150)
2(149 152)
2(151 153)
2(151 154)
2(153 156)
2(155 157)
2(155 158)
2(157 159)
2(160 161)
2(160 162)
2(161 163)
2(164 165)
2(164 166)
2(165 168)
2(167 169)
2(167 170)
2(169 172)
2(171 173)
2(171 174)
2(173 176)
2(175 177)
2(175 178)
2(177 180)
2(179 181)
2(179 182)
2(181 183)
2(184 185)
2(184 186)
2(185 187)
2(188 189)
2(188 186)
2(189 190)
2(191 192)
2(191 193)
2(192 194)
2(2 195)
2(0 1)
2(4 6)
2(8 10)
2(31 33)
2(35 37)
2(51 53)
2(55 57)
2(67 69)
2(71 72)
2(74 76)
2(78 80)
2(98 100)
2(102 104)
2(106 108)
2(130 132)
2(133 135)
2(149 151)
2(153 155)
2(165 167)
2(169 171)
2(173 175)
2(177 179)
2(12 14)
2(15 18)
2(19 22)
2(23 26)
2(27 30)
2(39 42)
2(43 46)
2(47 50)
2(59 62)
2(63 66)
2(82 85)
2(86 89)
2(90 93)
2(94 97)
2(110 113)
2(114 117)
2(118 121)
2(122 125)
2(126 129)
2(137 140)
2(141 144)
2(145 148)
2(157 160)
2(161 164)
2(181 184)
2(185 188)
2(189 191)
2(192 2)
2(11 17)
2(17 21)
2(21 25)
2(25 29)
2(29 34)
2(34 38)
2(38 41)
2(41 45)
2(45 49)
2(49 54)
2(54 58)
2(58 61)
2(61 65)
2(65 70)
2(70 73)
2(73 77)
2(77 81)
2(81 84)
2(84 88)
2(88 7)
2(7 3)
2(3 194)
2(194 190)
2(190 92)
2(92 96)
2(96 101)
2(101 105)
2(105 187)
2(187 183)
2(183 109)
2(109 112)
2(112 180)
2(180 176)
2(176 172)
2(172 116)
2(116 120)
2(120 124)
2(124 168)
2(168 163)
2(163 159)
2(159 156)
2(156 152)
2(152 147)
2(147 143)
2(143 139)
2(139 136)
2(136 128)
2(186 182)
2(182 178)
2(178 174)
2(174 170)
2(170 166)
2(166 162)
2(162 158)
2(158 154)
2(154 150)
2(150 146)
2(146 142)
2(142 138)
2(138 134)
2(134 131)
2(131 127)
2(127 123)
2(123 119)
2(119 115)
2(115 111)
2(111 107)
2(107 103)
2(103 99)
2(99 95)
2(95 193)
2(193 195)
2(195 5)
2(5 91)
2(91 87)
2(87 9)
2(9 13)
2(13 16)
2(16 20)
2(20 24)
2(24 28)
2(28 83)
2(83 79)
2(79 75)
2(75 32)
2(32 36)
2(36 40)
2(40 44)
2(44 48)
2(48 52)
2(52 56)
2(56 60)
2(60 64)
2(64 68)
)

// featurePointNormals

100
(
3(0 2 3)
3(0 2 5)
3(0 3 4)
3(1 4 5)
3(4 7 8)
3(6 8 9)
3(8 11 12)
3(10 12 13)
3(12 11 15)
3(14 15 16)
3(15 17 19)
3(18 19 20)
3(19 21 23)
3(22 23 24)
3(23 25 27)
3(26 27 28)
3(27 29 31)
3(30 31 32)
3(31 34 35)
3(33 35 36)
3(35 38 39)
3(37 39 40)
3(39 41 43)
3(42 43 44)
3(43 45 47)
3(46 47 48)
3(47 49 51)
3(50 51 52)
3(51 54 55)
3(53 55 56)
3(55 58 59)
3(57 59 60)
3(59 61 63)
3(62 63 64)
3(63 65 67)
3(66 67 68)
3(67 70 71)
3(69 71 68)
3(71 73 74)
3(72 74 75)
3(74 77 78)
3(76 78 79)
3(78 81 82)
3(80 82 83)
3(82 84 86)
3(85 86 87)
3(86 88 90)
3(89 90 91)
3(90 92 94)
3(93 94 95)
3(94 96 98)
3(97 98 99)
3(98 101 102)
3(100 102 103)
3(102 105 106)
3(104 106 107)
3(106 109 110)
3(108 110 111)
3(110 112 114)
3(113 114 115)
3(114 116 118)
3(117 118 119)
3(118 120 122)
3(121 122 123)
3(122 124 126)
3(125 126 127)
3(126 128 130)
3(129 130 131)
3(130 128 133)
3(132 133 134)
3(133 136 137)
3(135 137 138)
3(137 139 141)
3(140 141 142)
3(141 143 145)
3(144 145 146)
3(145 147 149)
3(148 149 150)
3(149 152 153)
3(151 153 154)
3(153 156 157)
3(155 157 158)
3(157 159 161)
3(160 161 162)
3(161 163 165)
3(164 165 166)
3(165 168 169)
3(167 169 170)
3(169 172 173)
3(171 173 174)
3(173 176 177)
3(175 177 178)
3(177 180 181)
3(179 181 182)
3(181 183 185)
3(184 185 186)
3(185 187 189)
3(188 189 186)
3(189 190 192)
3(191 192 193)
)

// featurePointEdges

100
(
5(0 199 148 221 1)
5(150 3 272 149 0)
5(150 2 4 220 1)
7(2 151 6 275 274 273 3)

24
(
151
5
7
200
201
202
203
204
205
206
207
208
209
210
211
212
213
214
215
216
217
218
219
4
)

5(5 152 9 276 6)
4(152 8 10 7)
5(8 172 12 277 9)
5(172 11 13 200 10)
5(11 173 15 278 12)
5(173 14 16 201 13)
5(14 174 18 279 15)
5(174 17 19 202 16)
5(17 175 21 280 18)
5(175 20 22 203 19)
8(20 176 24 284 283 282 281 21)
5(176 23 25 204 22)
5(23 153 27 285 24)
5(153 26 28 205 25)
5(26 154 30 286 27)
5(154 29 31 206 28)
5(29 177 33 287 30)
5(177 32 34 207 31)
5(32 178 36 288 33)
5(178 35 37 208 34)
5(35 179 39 289 36)
5(179 38 40 209 37)
5(38 155 42 290 39)
5(155 41 43 210 40)
5(41 156 45 291 42)
5(156 44 46 211 43)
5(44 180 48 292 45)
5(180 47 49 212 46)
5(47 181 51 293 48)
5(181 50 52 213 49)
4(50 157 54 51)
5(157 53 55 214 52)

14
(
53
158
57
284
285
286
287
288
289
290
291
292
293
54
)

5(158 56 58 215 55)
5(56 159 60 283 57)
5(159 59 61 216 58)
5(59 160 63 282 60)
5(160 62 64 217 61)

11
(
62
182
66
275
276
277
278
279
280
281
63
)

5(182 65 67 218 64)
5(65 183 69 274 66)
9(183 68 70 223 222 221 220 219 67)
8(68 184 72 270 271 272 273 69)
5(184 71 73 224 70)
5(71 185 75 269 72)
5(185 74 76 225 73)
5(74 161 78 268 75)
5(161 77 79 226 76)
5(77 162 81 267 78)
7(162 80 82 229 228 227 79)
5(80 163 84 266 81)
5(163 83 85 230 82)
5(83 186 87 265 84)
8(186 86 88 234 233 232 231 85)
5(86 187 90 264 87)
5(187 89 91 235 88)
5(89 188 93 263 90)
5(188 92 94 236 91)
5(92 189 96 262 93)

14
(
189
95
97
246
245
244
243
242
241
240
239
238
237
94
)

5(95 190 99 261 96)
4(190 98 100 97)
5(98 164 102 260 99)
5(164 101 103 246 100)
5(101 165 105 259 102)
5(165 104 106 245 103)
5(104 191 108 258 105)
5(191 107 109 244 106)
5(107 192 111 257 108)
5(192 110 112 243 109)
5(110 193 114 256 111)
5(193 113 115 242 112)
5(113 166 117 255 114)
5(166 116 118 241 115)
5(116 167 120 254 117)
5(167 119 121 240 118)
5(119 194 123 253 120)
5(194 122 124 239 121)
5(122 195 126 252 123)
5(195 125 127 238 124)
5(125 168 129 251 126)
8(168 128 130 234 235 236 237 127)
5(128 169 132 250 129)
5(169 131 133 233 130)
5(131 170 135 249 132)
5(170 134 136 232 133)
5(134 171 138 248 135)
7(171 137 139 229 230 231 136)
5(137 196 141 247 138)
5(196 140 142 228 139)
4(140 197 144 141)
9(197 143 145 223 224 225 226 227 142)

28
(
143
198
147
270
269
268
267
266
265
264
263
262
261
260
259
258
257
256
255
254
253
252
251
250
249
248
247
144
)

5(198 146 148 222 145)
5(146 199 149 271 147)
)

// regionEdges
0()


// ************************************************************************* //
