/*--------------------------------*- C++ -*----------------------------------*\
| =========                 |                                                 |
| \\      /  F ield         | OpenFOAM: The Open Source CFD Toolbox           |
|  \\    /   O peration     | Version:  2112                                  |
|   \\  /    A nd           | Website:  www.openfoam.com                      |
|    \\/     M anipulation  |                                                 |
\*---------------------------------------------------------------------------*/
FoamFile
{
    version     2.0;
    format      binary;
    arch        "LSB;label=32;scalar=64";
    class       polyBoundaryMesh;
    location    "constant/polyMesh";
    object      boundary;
}
// * * * * * * * * * * * * * * * * * * * * * * * * * * * * * * * * * * * * * //

6
(
    aturbine
    {
        type            wall;
        inGroups        1(wall);
        nFaces          206430;
        startFace       16210214;
    }
    outerCylinder
    {
        type            wall;
        inGroups        1(wall);
        nFaces          41968;
        startFace       16416644;
    }
    AMI1
    {
        type            cyclicAMI;
        inGroups        1(cyclicAMI);
        nFaces          75320;
        startFace       16458612;
        matchTolerance  0.0001;
        transform       noOrdering;
        neighbourPatch  AMI2;
        AMIMethod       faceAreaWeightAMI;
        restartUncoveredSourceFace 1;
    }
    AMI2
    {
        type            cyclicAMI;
        inGroups        1(cyclicAMI);
        nFaces          75408;
        startFace       16533932;
        matchTolerance  0.0001;
        transform       noOrdering;
        neighbourPatch  AMI1;
        AMIMethod       faceAreaWeightAMI;
        restartUncoveredSourceFace 1;
    }
    inlet
    {
        type            patch;
        nFaces          7148;
        startFace       16609340;
    }
    outlet
    {
        type            patch;
        nFaces          7148;
        startFace       16616488;
    }
)

// ************************************************************************* //
